[General]

# ==========================================================
# Always include the main Castalia.ini file
# ==========================================================

include ../Parameters/Castalia.ini

sim-time-limit = 15s

#include wsn_experiment.ini

SN.wirelessChannel.onlyStaticNodes = true
SN.wirelessChannel.sigma = 0
SN.wirelessChannel.bidirectionalSigma = 0
# Choose a radio and set the Tx power to a low value so
# that node's mobility has a better effect on connectivity
SN.node[*].Communication.Radio.RadioParametersFile = "../Parameters/Radio/CC2420.txt"
SN.node[*].Communication.Radio.TxOutputPower = "-5dBm"
SN.wirelessChannel.pathLossExponent = 2.4
SN.wirelessChannel.PLd0 = 51.55056 # 40m -> PLd0 = (-5dBm - max(-95dBm, -100dBm)) - 10 * pathLossExponent * log(40m)
SN.node[*].Communication.Radio.mode = "IDEAL"
SN.node[*].Communication.Radio.collisionModel = 0

#SN.node[*].Communication.MACProtocolName = "TunableMAC"
#SN.node[*].Communication.MAC.dutyCycle = 1.0
#SN.node[*].Communication.MAC.randomTxOffset = 0
#SN.node[*].Communication.MAC.backoffType = 2

#SN.node[*].Communication.RoutingProtocolName = "GreedyRouting"
# be carefull, turning debig info on may generate a lot of trace data
SN.node[*].Communication.Routing.collectTraceInfo = true

SN.node[*].ApplicationName = "SimplePairApplication"
SN.node[*].Application.collectTraceInfo = false

#SN.node[0].Application.packet_rate = 0.2
#SN.node[0].Application.maxData = 100
#SN.node[0].Application.startupDelay = 10
#SN.node[0].Application.nextRecipient = "2"


SN.node[*].Communication.RoutingProtocolName = "GpsrRouting"
SN.node[*].Communication.MACProtocolName = "TunableMAC"
SN.node[*].Communication.MAC.dutyCycle = 1.0
SN.node[*].Communication.MAC.randomTxOffset = 0
SN.node[*].Communication.MAC.backoffType = 2
SN.numNodes = 500
SN.field_x = 400
SN.field_y = 400
SN.node[0].xCoor = 10.579224732879
SN.node[0].yCoor = 395.18189002714774
SN.node[1].xCoor = 22.216929273470036
SN.node[1].yCoor = 399.8214099217506
SN.node[2].xCoor = 47.7962697424108
SN.node[2].yCoor = 389.7220346392027
SN.node[3].xCoor = 61.18854534972337
SN.node[3].yCoor = 395.13470367820094
SN.node[4].xCoor = 86.20121325526515
SN.node[4].yCoor = 397.08915914672656
SN.node[5].xCoor = 106.373745113804
SN.node[5].yCoor = 380.5458431429148
SN.node[6].xCoor = 135.46362844348963
SN.node[6].yCoor = 389.6648435507782
SN.node[7].xCoor = 159.13954914483085
SN.node[7].yCoor = 395.70096208787567
SN.node[8].xCoor = 169.979289054599
SN.node[8].yCoor = 399.7228448690228
SN.node[9].xCoor = 187.89192470878638
SN.node[9].yCoor = 397.7212374901256
SN.node[10].xCoor = 210.1393432062664
SN.node[10].yCoor = 398.00649331837644
SN.node[11].xCoor = 235.68701665593323
SN.node[11].yCoor = 394.7579421518014
SN.node[12].xCoor = 258.4267748341175
SN.node[12].yCoor = 386.103706340499
SN.node[13].xCoor = 274.8870563627668
SN.node[13].yCoor = 399.5521854752504
SN.node[14].xCoor = 296.2522686573452
SN.node[14].yCoor = 396.1486090026853
SN.node[15].xCoor = 316.9466150553601
SN.node[15].yCoor = 398.92048614981087
SN.node[16].xCoor = 322.81859861411374
SN.node[16].yCoor = 386.5814516847921
SN.node[17].xCoor = 355.0963447177154
SN.node[17].yCoor = 385.929621783274
SN.node[18].xCoor = 377.8898976846809
SN.node[18].yCoor = 396.9269613940811
SN.node[19].xCoor = 389.31522854922065
SN.node[19].yCoor = 399.5037015039726
SN.node[20].xCoor = 12.988269178769404
SN.node[20].yCoor = 374.8830053806482
SN.node[21].xCoor = 39.19879472378865
SN.node[21].yCoor = 364.65314850506974
SN.node[22].xCoor = 41.804559744758656
SN.node[22].yCoor = 360.9316799182241
SN.node[23].xCoor = 73.49529758233663
SN.node[23].yCoor = 363.561754734497
SN.node[24].xCoor = 98.09506356390415
SN.node[24].yCoor = 365.21683537275635
SN.node[25].xCoor = 103.12407217923449
SN.node[25].yCoor = 374.6914476355957
SN.node[26].xCoor = 122.27178814830246
SN.node[26].yCoor = 361.4225193249301
SN.node[27].xCoor = 146.26601578051017
SN.node[27].yCoor = 373.79837762903793
SN.node[28].xCoor = 163.0493476342353
SN.node[28].yCoor = 379.6295957252231
SN.node[29].xCoor = 190.668841396184
SN.node[29].yCoor = 376.06062332029194
SN.node[30].xCoor = 208.18875375416707
SN.node[30].yCoor = 372.9334518183322
SN.node[31].xCoor = 235.9285136514079
SN.node[31].yCoor = 375.8291870272707
SN.node[32].xCoor = 253.4933620693667
SN.node[32].yCoor = 369.91550885979956
SN.node[33].xCoor = 278.01311003830045
SN.node[33].yCoor = 373.98135859895865
SN.node[34].xCoor = 286.2364458267452
SN.node[34].yCoor = 363.42036533570626
SN.node[35].xCoor = 300.60663333224454
SN.node[35].yCoor = 365.1847281178094
SN.node[36].xCoor = 337.156856875368
SN.node[36].yCoor = 364.97280698784397
SN.node[37].xCoor = 357.1522425372563
SN.node[37].yCoor = 364.42408670834385
SN.node[38].xCoor = 365.30408160812846
SN.node[38].yCoor = 369.1528083444364
SN.node[39].xCoor = 399.3506415280745
SN.node[39].yCoor = 374.9413506611145
SN.node[40].xCoor = 8.067506239464421
SN.node[40].yCoor = 342.76862987857044
SN.node[41].xCoor = 26.32806163975557
SN.node[41].yCoor = 359.7649220739198
SN.node[42].xCoor = 46.94583023844025
SN.node[42].yCoor = 345.7474305736388
SN.node[43].xCoor = 73.24408191178242
SN.node[43].yCoor = 342.39058273611306
SN.node[44].xCoor = 80.66982284190473
SN.node[44].yCoor = 344.32386357629764
SN.node[45].xCoor = 102.37698169651861
SN.node[45].yCoor = 346.71597491543616
SN.node[46].xCoor = 134.40895755195004
SN.node[46].yCoor = 347.88481110693033
SN.node[47].xCoor = 155.26076522237048
SN.node[47].yCoor = 344.3347695469822
SN.node[48].xCoor = 170.66744688972398
SN.node[48].yCoor = 351.7750205224491
SN.node[49].xCoor = 196.41393888720734
SN.node[49].yCoor = 359.59494973396903
SN.node[50].xCoor = 214.0787636795634
SN.node[50].yCoor = 352.3726298026662
SN.node[51].xCoor = 225.4920116456304
SN.node[51].yCoor = 357.25100720165676
SN.node[52].xCoor = 244.63348744723103
SN.node[52].yCoor = 341.718812687452
SN.node[53].xCoor = 270.140627290854
SN.node[53].yCoor = 341.0408744143716
SN.node[54].xCoor = 289.3408298390868
SN.node[54].yCoor = 350.819208437999
SN.node[55].xCoor = 319.0400339080894
SN.node[55].yCoor = 344.9726015344444
SN.node[56].xCoor = 338.23458771774585
SN.node[56].yCoor = 357.6233124969065
SN.node[57].xCoor = 342.47638192746075
SN.node[57].yCoor = 351.5270963812259
SN.node[58].xCoor = 371.70883578119674
SN.node[58].yCoor = 351.0295253300409
SN.node[59].xCoor = 384.73519176905006
SN.node[59].yCoor = 344.11186944573427
SN.node[60].xCoor = 4.0809144757276306
SN.node[60].yCoor = 337.97221254400404
SN.node[61].xCoor = 37.20613476070941
SN.node[61].yCoor = 325.5218459200029
SN.node[62].xCoor = 43.817546514838405
SN.node[62].yCoor = 335.3039151043363
SN.node[63].xCoor = 73.85266280615792
SN.node[63].yCoor = 335.42049703884413
SN.node[64].xCoor = 90.34749023556004
SN.node[64].yCoor = 323.5957182846713
SN.node[65].xCoor = 103.2245391701713
SN.node[65].yCoor = 335.6526938639686
SN.node[66].xCoor = 136.69317075722077
SN.node[66].yCoor = 336.2374768768986
SN.node[67].xCoor = 156.12921097133903
SN.node[67].yCoor = 329.81331085349285
SN.node[68].xCoor = 166.34254775579018
SN.node[68].yCoor = 323.50356346982153
SN.node[69].xCoor = 187.94640743076295
SN.node[69].yCoor = 320.90739874852125
SN.node[70].xCoor = 218.70895478860928
SN.node[70].yCoor = 320.4908633060726
SN.node[71].xCoor = 222.37473955220486
SN.node[71].yCoor = 339.48298485438136
SN.node[72].xCoor = 255.1023866896171
SN.node[72].yCoor = 334.61206571486093
SN.node[73].xCoor = 272.5308331134707
SN.node[73].yCoor = 339.9196992370519
SN.node[74].xCoor = 281.52067249765787
SN.node[74].yCoor = 325.8785792857366
SN.node[75].xCoor = 302.9711876775188
SN.node[75].yCoor = 324.2163912188927
SN.node[76].xCoor = 333.0318164772747
SN.node[76].yCoor = 338.20628927316017
SN.node[77].xCoor = 348.74505758654504
SN.node[77].yCoor = 321.05486327932584
SN.node[78].xCoor = 377.17009927678413
SN.node[78].yCoor = 339.43331451244137
SN.node[79].xCoor = 381.0873940884447
SN.node[79].yCoor = 321.56003426186805
SN.node[80].xCoor = 2.935739381936955
SN.node[80].yCoor = 319.74589273630943
SN.node[81].xCoor = 32.186523029698954
SN.node[81].yCoor = 304.03272085378944
SN.node[82].xCoor = 43.2792806640481
SN.node[82].yCoor = 314.99213310813656
SN.node[83].xCoor = 67.15547273463328
SN.node[83].yCoor = 309.9582221101524
SN.node[84].xCoor = 91.87150130781919
SN.node[84].yCoor = 307.0761196397191
SN.node[85].xCoor = 116.14060103994794
SN.node[85].yCoor = 316.50682210807855
SN.node[86].xCoor = 125.10767020717233
SN.node[86].yCoor = 314.5499174421577
SN.node[87].xCoor = 154.80251249094434
SN.node[87].yCoor = 316.67127898292864
SN.node[88].xCoor = 165.6225008696241
SN.node[88].yCoor = 301.13951898946095
SN.node[89].xCoor = 188.53975343993713
SN.node[89].yCoor = 302.91624658099965
SN.node[90].xCoor = 202.77501997471975
SN.node[90].yCoor = 315.89719989790217
SN.node[91].xCoor = 222.66293754327484
SN.node[91].yCoor = 317.70306840240204
SN.node[92].xCoor = 241.735805523758
SN.node[92].yCoor = 318.4177973800284
SN.node[93].xCoor = 262.1125600040425
SN.node[93].yCoor = 312.963405491101
SN.node[94].xCoor = 288.2337165923372
SN.node[94].yCoor = 318.8469314928938
SN.node[95].xCoor = 315.4010030550705
SN.node[95].yCoor = 300.66648195621775
SN.node[96].xCoor = 328.3297463537443
SN.node[96].yCoor = 318.233133231217
SN.node[97].xCoor = 347.0304928461105
SN.node[97].yCoor = 311.5203084876798
SN.node[98].xCoor = 374.9216238551733
SN.node[98].yCoor = 300.82269939777314
SN.node[99].xCoor = 381.57207491471496
SN.node[99].yCoor = 317.4684429258415
SN.node[100].xCoor = 18.97996211970095
SN.node[100].yCoor = 293.1678426414255
SN.node[101].xCoor = 32.07405855411193
SN.node[101].yCoor = 288.65173350919656
SN.node[102].xCoor = 42.03709874919769
SN.node[102].yCoor = 295.4900331495227
SN.node[103].xCoor = 63.26749572455859
SN.node[103].yCoor = 282.9538204725241
SN.node[104].xCoor = 95.71750723706698
SN.node[104].yCoor = 297.73981730233135
SN.node[105].xCoor = 106.73008685987739
SN.node[105].yCoor = 285.62967651261306
SN.node[106].xCoor = 123.34858107323372
SN.node[106].yCoor = 299.32310304054187
SN.node[107].xCoor = 150.9137665152002
SN.node[107].yCoor = 287.2622945547889
SN.node[108].xCoor = 175.0039936575505
SN.node[108].yCoor = 293.48595913849465
SN.node[109].xCoor = 196.2190132343143
SN.node[109].yCoor = 295.17177412120634
SN.node[110].xCoor = 218.78097171937685
SN.node[110].yCoor = 290.30396623865124
SN.node[111].xCoor = 236.50323573465147
SN.node[111].yCoor = 297.3410270562592
SN.node[112].xCoor = 243.85596241235262
SN.node[112].yCoor = 293.25529050099806
SN.node[113].xCoor = 267.1113591902641
SN.node[113].yCoor = 284.9085526040855
SN.node[114].xCoor = 284.43052356954695
SN.node[114].yCoor = 285.62879979677916
SN.node[115].xCoor = 300.05068179886405
SN.node[115].yCoor = 298.8506502018644
SN.node[116].xCoor = 335.9551435973956
SN.node[116].yCoor = 287.34102332341627
SN.node[117].xCoor = 359.2678490783963
SN.node[117].yCoor = 289.8347787232789
SN.node[118].xCoor = 373.4028217207795
SN.node[118].yCoor = 293.23489027610157
SN.node[119].xCoor = 383.1730210561569
SN.node[119].yCoor = 281.22308938413425
SN.node[120].xCoor = 2.2783560424892
SN.node[120].yCoor = 273.7430509755623
SN.node[121].xCoor = 32.29904292681057
SN.node[121].yCoor = 264.5911089209689
SN.node[122].xCoor = 59.711548482723984
SN.node[122].yCoor = 277.32524899267696
SN.node[123].xCoor = 78.69866659869173
SN.node[123].yCoor = 275.5644974775897
SN.node[124].xCoor = 91.43039952640352
SN.node[124].yCoor = 263.5082378262085
SN.node[125].xCoor = 114.24894667178988
SN.node[125].yCoor = 275.74796183452486
SN.node[126].xCoor = 122.3101385700201
SN.node[126].yCoor = 265.4839542934475
SN.node[127].xCoor = 148.5809244646705
SN.node[127].yCoor = 275.8805238640766
SN.node[128].xCoor = 176.19966992276773
SN.node[128].yCoor = 275.1611104946069
SN.node[129].xCoor = 192.20485134270587
SN.node[129].yCoor = 262.27197765287974
SN.node[130].xCoor = 203.75478116196382
SN.node[130].yCoor = 265.9985575692948
SN.node[131].xCoor = 236.0760319642946
SN.node[131].yCoor = 278.4902741907595
SN.node[132].xCoor = 246.56752600925012
SN.node[132].yCoor = 273.8373338086973
SN.node[133].xCoor = 264.5911090922883
SN.node[133].yCoor = 273.4622870087701
SN.node[134].xCoor = 295.7243938483128
SN.node[134].yCoor = 275.01542617126177
SN.node[135].xCoor = 316.2064937149525
SN.node[135].yCoor = 272.4911080679332
SN.node[136].xCoor = 334.6745230007637
SN.node[136].yCoor = 276.80430955681345
SN.node[137].xCoor = 345.4119344649639
SN.node[137].yCoor = 273.8991993297611
SN.node[138].xCoor = 371.766480371464
SN.node[138].yCoor = 273.3440112460299
SN.node[139].xCoor = 384.85097532166617
SN.node[139].yCoor = 276.18730953030587
SN.node[140].xCoor = 12.964455302867751
SN.node[140].yCoor = 259.1651116802052
SN.node[141].xCoor = 28.499910901893053
SN.node[141].yCoor = 246.44279647688373
SN.node[142].xCoor = 42.351246716530156
SN.node[142].yCoor = 257.4914608544496
SN.node[143].xCoor = 70.30714159456831
SN.node[143].yCoor = 250.08878502901092
SN.node[144].xCoor = 92.30034910700034
SN.node[144].yCoor = 245.25694492151638
SN.node[145].xCoor = 111.2870766330935
SN.node[145].yCoor = 259.25226260424756
SN.node[146].xCoor = 130.83485142089071
SN.node[146].yCoor = 244.70599237836907
SN.node[147].xCoor = 152.4924840957564
SN.node[147].yCoor = 243.11632859337433
SN.node[148].xCoor = 172.58181909006396
SN.node[148].yCoor = 248.10819643341665
SN.node[149].xCoor = 183.32720084719563
SN.node[149].yCoor = 254.2619112770951
SN.node[150].xCoor = 200.64018521509166
SN.node[150].yCoor = 247.13933437211932
SN.node[151].xCoor = 234.60490250422606
SN.node[151].yCoor = 258.30894948497775
SN.node[152].xCoor = 244.3033429960528
SN.node[152].yCoor = 251.992516153602
SN.node[153].xCoor = 266.84227150291474
SN.node[153].yCoor = 251.17516634238487
SN.node[154].xCoor = 281.52826790457584
SN.node[154].yCoor = 245.00562518227514
SN.node[155].xCoor = 301.7991950794912
SN.node[155].yCoor = 250.6172994011706
SN.node[156].xCoor = 335.2275022949622
SN.node[156].yCoor = 250.38389730935975
SN.node[157].xCoor = 359.28339897316016
SN.node[157].yCoor = 249.40804499871388
SN.node[158].xCoor = 370.75841653909646
SN.node[158].yCoor = 254.62527453010418
SN.node[159].xCoor = 380.99239750654516
SN.node[159].yCoor = 257.8283579937614
SN.node[160].xCoor = 0.4808710922737669
SN.node[160].yCoor = 230.63650246472372
SN.node[161].xCoor = 21.016830448086495
SN.node[161].yCoor = 221.9147020986922
SN.node[162].xCoor = 47.6750481808658
SN.node[162].yCoor = 228.22749209326895
SN.node[163].xCoor = 65.07806793165628
SN.node[163].yCoor = 235.25054234897908
SN.node[164].xCoor = 89.38041578745236
SN.node[164].yCoor = 220.0326936342255
SN.node[165].xCoor = 119.32935131763045
SN.node[165].yCoor = 235.72987854693162
SN.node[166].xCoor = 139.02916368939793
SN.node[166].yCoor = 222.00797370521158
SN.node[167].xCoor = 142.82764125853052
SN.node[167].yCoor = 228.35280641199498
SN.node[168].xCoor = 178.85998840359792
SN.node[168].yCoor = 234.10434740658908
SN.node[169].xCoor = 185.72124374783888
SN.node[169].yCoor = 226.57230539119624
SN.node[170].xCoor = 217.75477055778933
SN.node[170].yCoor = 239.2280439733048
SN.node[171].xCoor = 225.37094564135725
SN.node[171].yCoor = 225.80206034511565
SN.node[172].xCoor = 241.15466558741275
SN.node[172].yCoor = 221.65418966245147
SN.node[173].xCoor = 267.7400959476605
SN.node[173].yCoor = 222.0896563724694
SN.node[174].xCoor = 286.25183326281365
SN.node[174].yCoor = 225.76874443170863
SN.node[175].xCoor = 315.93561202816045
SN.node[175].yCoor = 223.96580835859464
SN.node[176].xCoor = 326.38613928153154
SN.node[176].yCoor = 224.30988731934985
SN.node[177].xCoor = 342.5094646685961
SN.node[177].yCoor = 226.14885952935077
SN.node[178].xCoor = 365.5816743247353
SN.node[178].yCoor = 236.63077150703373
SN.node[179].xCoor = 386.57388552395133
SN.node[179].yCoor = 224.00530302493038
SN.node[180].xCoor = 10.881187116126107
SN.node[180].yCoor = 204.66041306304555
SN.node[181].xCoor = 36.83708458348087
SN.node[181].yCoor = 201.80521289183
SN.node[182].xCoor = 41.839278949586664
SN.node[182].yCoor = 212.50745043985188
SN.node[183].xCoor = 79.50541993285516
SN.node[183].yCoor = 217.20071536815695
SN.node[184].xCoor = 86.68478999737165
SN.node[184].yCoor = 203.55164501685613
SN.node[185].xCoor = 107.80044516055386
SN.node[185].yCoor = 200.43364205959574
SN.node[186].xCoor = 134.1441360389655
SN.node[186].yCoor = 219.9800389475552
SN.node[187].xCoor = 144.9325252352085
SN.node[187].yCoor = 206.59030778902255
SN.node[188].xCoor = 163.10475064457864
SN.node[188].yCoor = 216.79607936897722
SN.node[189].xCoor = 196.37225589896127
SN.node[189].yCoor = 217.79516530590786
SN.node[190].xCoor = 213.81297979378263
SN.node[190].yCoor = 217.59883769892565
SN.node[191].xCoor = 233.52741249272555
SN.node[191].yCoor = 214.4080693647261
SN.node[192].xCoor = 255.26639062870112
SN.node[192].yCoor = 213.2922753377045
SN.node[193].xCoor = 273.6387153632564
SN.node[193].yCoor = 215.33857133936812
SN.node[194].xCoor = 292.81593795987476
SN.node[194].yCoor = 200.78387629072773
SN.node[195].xCoor = 300.8200174299973
SN.node[195].yCoor = 205.42585289264167
SN.node[196].xCoor = 330.06584091935093
SN.node[196].yCoor = 207.23045798421612
SN.node[197].xCoor = 359.2481658219985
SN.node[197].yCoor = 208.35636914256298
SN.node[198].xCoor = 366.9354766106738
SN.node[198].yCoor = 216.50599861288268
SN.node[199].xCoor = 382.5607595686301
SN.node[199].yCoor = 210.8585131538029
SN.node[200].xCoor = 19.939716824376998
SN.node[200].yCoor = 185.35343456599804
SN.node[201].xCoor = 24.843410188285503
SN.node[201].yCoor = 197.32781920144032
SN.node[202].xCoor = 57.8383755563987
SN.node[202].yCoor = 180.95279051033887
SN.node[203].xCoor = 74.45587945822164
SN.node[203].yCoor = 192.13368679285256
SN.node[204].xCoor = 85.3924170994333
SN.node[204].yCoor = 196.1828465574463
SN.node[205].xCoor = 116.35011408494645
SN.node[205].yCoor = 182.0530456507609
SN.node[206].xCoor = 122.4105642079735
SN.node[206].yCoor = 191.314108685642
SN.node[207].xCoor = 152.36556853005254
SN.node[207].yCoor = 192.78972184098686
SN.node[208].xCoor = 179.53903496467478
SN.node[208].yCoor = 196.73849723793975
SN.node[209].xCoor = 184.02557136932032
SN.node[209].yCoor = 188.41086962210497
SN.node[210].xCoor = 206.46247905961212
SN.node[210].yCoor = 181.41263143218046
SN.node[211].xCoor = 238.31336223978016
SN.node[211].yCoor = 183.80073235266963
SN.node[212].xCoor = 256.49956508873106
SN.node[212].yCoor = 180.02129546317843
SN.node[213].xCoor = 277.0393380153829
SN.node[213].yCoor = 196.29863203204138
SN.node[214].xCoor = 292.4391623979772
SN.node[214].yCoor = 190.79059369944682
SN.node[215].xCoor = 305.84377905123637
SN.node[215].yCoor = 196.47797307552594
SN.node[216].xCoor = 320.0146475791611
SN.node[216].yCoor = 180.11093660976894
SN.node[217].xCoor = 354.2416388596251
SN.node[217].yCoor = 198.1630238778224
SN.node[218].xCoor = 374.2600663924997
SN.node[218].yCoor = 197.2983109884683
SN.node[219].xCoor = 386.9206137560919
SN.node[219].yCoor = 185.66938519049427
SN.node[220].xCoor = 6.328821093820518
SN.node[220].yCoor = 179.55313514648148
SN.node[221].xCoor = 20.40874198647589
SN.node[221].yCoor = 170.29500602991553
SN.node[222].xCoor = 53.78624629885222
SN.node[222].yCoor = 171.13413033545888
SN.node[223].xCoor = 76.11302328864868
SN.node[223].yCoor = 165.44251465841296
SN.node[224].xCoor = 95.3396897776681
SN.node[224].yCoor = 167.12169191776792
SN.node[225].xCoor = 103.39083011449269
SN.node[225].yCoor = 172.8916101171173
SN.node[226].xCoor = 132.73055861910396
SN.node[226].yCoor = 179.49368064790212
SN.node[227].xCoor = 149.4442913959953
SN.node[227].yCoor = 163.27875225684565
SN.node[228].xCoor = 177.53146999691353
SN.node[228].yCoor = 172.87816419278462
SN.node[229].xCoor = 188.7146736658601
SN.node[229].yCoor = 173.56677121333348
SN.node[230].xCoor = 209.9686637214335
SN.node[230].yCoor = 179.70993477283815
SN.node[231].xCoor = 228.8879682358486
SN.node[231].yCoor = 166.4629560840043
SN.node[232].xCoor = 255.53412749280363
SN.node[232].yCoor = 162.89139808418597
SN.node[233].xCoor = 266.71929658523413
SN.node[233].yCoor = 171.90571321255092
SN.node[234].xCoor = 287.76342556209295
SN.node[234].yCoor = 160.55964510723084
SN.node[235].xCoor = 317.4022597747375
SN.node[235].yCoor = 169.8416402641884
SN.node[236].xCoor = 339.4523446313565
SN.node[236].yCoor = 174.71285275791584
SN.node[237].xCoor = 349.0157851188755
SN.node[237].yCoor = 161.92841257209153
SN.node[238].xCoor = 366.64818183471095
SN.node[238].yCoor = 179.93272639670045
SN.node[239].xCoor = 387.33191300998095
SN.node[239].yCoor = 174.2476288546589
SN.node[240].xCoor = 16.861837043034026
SN.node[240].yCoor = 144.81255962824295
SN.node[241].xCoor = 31.570301871791578
SN.node[241].yCoor = 155.7009474584916
SN.node[242].xCoor = 55.36878081455329
SN.node[242].yCoor = 147.67523061436222
SN.node[243].xCoor = 73.24120029017473
SN.node[243].yCoor = 143.35688644614493
SN.node[244].xCoor = 83.73177553017149
SN.node[244].yCoor = 145.29958575913648
SN.node[245].xCoor = 114.56353269179074
SN.node[245].yCoor = 143.2072237458878
SN.node[246].xCoor = 133.3306064097061
SN.node[246].yCoor = 149.55262376755607
SN.node[247].xCoor = 148.18923836243977
SN.node[247].yCoor = 157.52989352253968
SN.node[248].xCoor = 175.7884506097494
SN.node[248].yCoor = 143.01708533727543
SN.node[249].xCoor = 194.40487646685284
SN.node[249].yCoor = 155.75877344279425
SN.node[250].xCoor = 209.17577249793987
SN.node[250].yCoor = 150.48400484035253
SN.node[251].xCoor = 221.50302900207402
SN.node[251].yCoor = 144.09465088683368
SN.node[252].xCoor = 246.80777516517753
SN.node[252].yCoor = 142.31568644290473
SN.node[253].xCoor = 279.61321905288725
SN.node[253].yCoor = 152.69212415907063
SN.node[254].xCoor = 284.9342111433448
SN.node[254].yCoor = 154.9346002972199
SN.node[255].xCoor = 302.5961694275031
SN.node[255].yCoor = 157.96452994513095
SN.node[256].xCoor = 322.86366624383186
SN.node[256].yCoor = 159.70597779291006
SN.node[257].xCoor = 355.70566216578305
SN.node[257].yCoor = 155.69064714116328
SN.node[258].xCoor = 366.84816402063404
SN.node[258].yCoor = 157.92106871195622
SN.node[259].xCoor = 393.3608768236233
SN.node[259].yCoor = 140.05163091892234
SN.node[260].xCoor = 6.686077163898747
SN.node[260].yCoor = 129.99912654691047
SN.node[261].xCoor = 39.34528402081017
SN.node[261].yCoor = 126.50833385710143
SN.node[262].xCoor = 42.02094171026884
SN.node[262].yCoor = 138.82330331537509
SN.node[263].xCoor = 77.55653640239527
SN.node[263].yCoor = 127.27988796583338
SN.node[264].xCoor = 86.03686441240541
SN.node[264].yCoor = 138.61352167021687
SN.node[265].xCoor = 114.88990075873653
SN.node[265].yCoor = 131.34615007024013
SN.node[266].xCoor = 122.30928347844564
SN.node[266].yCoor = 122.12676333900657
SN.node[267].xCoor = 144.81183885727938
SN.node[267].yCoor = 122.74912479983539
SN.node[268].xCoor = 171.8757654376053
SN.node[268].yCoor = 131.75236430488218
SN.node[269].xCoor = 195.42043318285937
SN.node[269].yCoor = 127.94471204998655
SN.node[270].xCoor = 210.929264464501
SN.node[270].yCoor = 123.43840612507165
SN.node[271].xCoor = 238.05971409322177
SN.node[271].yCoor = 128.54338765952593
SN.node[272].xCoor = 258.92498217879125
SN.node[272].yCoor = 130.34878454285695
SN.node[273].xCoor = 273.37739198982086
SN.node[273].yCoor = 133.8202980045047
SN.node[274].xCoor = 288.02273932588633
SN.node[274].yCoor = 120.6485131641088
SN.node[275].xCoor = 311.57027484746476
SN.node[275].yCoor = 137.018352697252
SN.node[276].xCoor = 334.36502970960544
SN.node[276].yCoor = 130.29936504094695
SN.node[277].xCoor = 358.4516164491326
SN.node[277].yCoor = 126.86364489679602
SN.node[278].xCoor = 365.62270273667224
SN.node[278].yCoor = 122.83068355944403
SN.node[279].xCoor = 380.96193675506987
SN.node[279].yCoor = 121.20724385709946
SN.node[280].xCoor = 13.410377702073934
SN.node[280].yCoor = 107.80323120086598
SN.node[281].xCoor = 32.64648034133903
SN.node[281].yCoor = 119.33574201874893
SN.node[282].xCoor = 48.01146025777976
SN.node[282].yCoor = 114.1086505361211
SN.node[283].xCoor = 67.67840264331669
SN.node[283].yCoor = 107.31417342432655
SN.node[284].xCoor = 96.86596838226748
SN.node[284].yCoor = 113.65030257122618
SN.node[285].xCoor = 110.04663552889038
SN.node[285].yCoor = 105.11261347011316
SN.node[286].xCoor = 133.84165307267375
SN.node[286].yCoor = 117.5827605296019
SN.node[287].xCoor = 152.7219011426654
SN.node[287].yCoor = 113.4624953269552
SN.node[288].xCoor = 170.3380788535604
SN.node[288].yCoor = 115.16625661789703
SN.node[289].xCoor = 182.11753995929888
SN.node[289].yCoor = 112.95531381571237
SN.node[290].xCoor = 212.96750169968848
SN.node[290].yCoor = 109.59817339831079
SN.node[291].xCoor = 226.8118990438164
SN.node[291].yCoor = 101.07737504628187
SN.node[292].xCoor = 241.63933393849447
SN.node[292].yCoor = 101.57706066329229
SN.node[293].xCoor = 278.5952228935194
SN.node[293].yCoor = 114.12969181306192
SN.node[294].xCoor = 287.8567216680408
SN.node[294].yCoor = 112.52428239591774
SN.node[295].xCoor = 317.24741902048794
SN.node[295].yCoor = 103.0232205436509
SN.node[296].xCoor = 328.46300436531675
SN.node[296].yCoor = 104.66867639306383
SN.node[297].xCoor = 359.80514848979846
SN.node[297].yCoor = 101.37900997549139
SN.node[298].xCoor = 364.3611841119932
SN.node[298].yCoor = 113.15064893302736
SN.node[299].xCoor = 382.4921536812283
SN.node[299].yCoor = 113.48974696362802
SN.node[300].xCoor = 3.834067399312131
SN.node[300].yCoor = 94.70276186488684
SN.node[301].xCoor = 33.80988807537488
SN.node[301].yCoor = 88.71959658927682
SN.node[302].xCoor = 48.51178297304865
SN.node[302].yCoor = 80.7483768350994
SN.node[303].xCoor = 67.97092402192771
SN.node[303].yCoor = 99.78541741790195
SN.node[304].xCoor = 89.51086095527835
SN.node[304].yCoor = 96.07571783833089
SN.node[305].xCoor = 119.35569584494793
SN.node[305].yCoor = 81.66336322754165
SN.node[306].xCoor = 134.4191128949816
SN.node[306].yCoor = 83.66972446522243
SN.node[307].xCoor = 143.8204346204348
SN.node[307].yCoor = 85.33195878211922
SN.node[308].xCoor = 170.85903170278905
SN.node[308].yCoor = 91.8993755127816
SN.node[309].xCoor = 185.4013411499291
SN.node[309].yCoor = 95.81632095751002
SN.node[310].xCoor = 213.56851405991424
SN.node[310].yCoor = 97.53151032656586
SN.node[311].xCoor = 236.4036270734767
SN.node[311].yCoor = 85.58041572390522
SN.node[312].xCoor = 240.69719759409224
SN.node[312].yCoor = 98.88043584735931
SN.node[313].xCoor = 272.11134988762194
SN.node[313].yCoor = 99.88918695082293
SN.node[314].xCoor = 281.8388135763356
SN.node[314].yCoor = 84.9672528339429
SN.node[315].xCoor = 307.6729066024102
SN.node[315].yCoor = 94.67403027484687
SN.node[316].xCoor = 336.46744975003816
SN.node[316].yCoor = 91.6701763124035
SN.node[317].xCoor = 358.51154650604303
SN.node[317].yCoor = 89.84565495178668
SN.node[318].xCoor = 360.3707067819424
SN.node[318].yCoor = 87.31652770131075
SN.node[319].xCoor = 391.58051731321524
SN.node[319].yCoor = 85.1628737487975
SN.node[320].xCoor = 18.626410316162143
SN.node[320].yCoor = 71.19924247986387
SN.node[321].xCoor = 20.605472286346668
SN.node[321].yCoor = 68.05444479997419
SN.node[322].xCoor = 55.83486127418769
SN.node[322].yCoor = 64.22557602141762
SN.node[323].xCoor = 63.07312350498655
SN.node[323].yCoor = 70.91729409848585
SN.node[324].xCoor = 90.11114766727778
SN.node[324].yCoor = 63.51418431303745
SN.node[325].xCoor = 105.06702884763368
SN.node[325].yCoor = 61.23923905625787
SN.node[326].xCoor = 131.9556362969794
SN.node[326].yCoor = 76.20350234294966
SN.node[327].xCoor = 143.21221007994583
SN.node[327].yCoor = 71.33543267298768
SN.node[328].xCoor = 168.13839482551452
SN.node[328].yCoor = 65.10354098350757
SN.node[329].xCoor = 197.52335896750114
SN.node[329].yCoor = 70.7517030284207
SN.node[330].xCoor = 201.9948994780828
SN.node[330].yCoor = 77.7940785631659
SN.node[331].xCoor = 230.07737582302116
SN.node[331].yCoor = 64.69744773065497
SN.node[332].xCoor = 250.19759714212677
SN.node[332].yCoor = 64.60240843903489
SN.node[333].xCoor = 267.1564003936709
SN.node[333].yCoor = 62.75617831858324
SN.node[334].xCoor = 298.5212859033335
SN.node[334].yCoor = 79.5684762608584
SN.node[335].xCoor = 304.4480867542154
SN.node[335].yCoor = 78.86845310059078
SN.node[336].xCoor = 320.6366351963649
SN.node[336].yCoor = 68.70581309750554
SN.node[337].xCoor = 349.5116017476587
SN.node[337].yCoor = 71.47990338116443
SN.node[338].xCoor = 361.32201408907866
SN.node[338].yCoor = 65.58547463802972
SN.node[339].xCoor = 399.9998896516429
SN.node[339].yCoor = 79.8566740174025
SN.node[340].xCoor = 8.801781024613469
SN.node[340].yCoor = 51.30649805134669
SN.node[341].xCoor = 39.08863315815957
SN.node[341].yCoor = 47.89059407019931
SN.node[342].xCoor = 59.66538530707448
SN.node[342].yCoor = 57.942063118257295
SN.node[343].xCoor = 65.87715760134483
SN.node[343].yCoor = 49.07185533030315
SN.node[344].xCoor = 92.34832424278308
SN.node[344].yCoor = 54.96822464253688
SN.node[345].xCoor = 115.94084222187884
SN.node[345].yCoor = 52.24789462462934
SN.node[346].xCoor = 121.25994557745283
SN.node[346].yCoor = 53.47316631019419
SN.node[347].xCoor = 147.4999448965363
SN.node[347].yCoor = 48.94293426494204
SN.node[348].xCoor = 175.58474458830418
SN.node[348].yCoor = 45.75927612608848
SN.node[349].xCoor = 183.54168236088404
SN.node[349].yCoor = 56.963070194665534
SN.node[350].xCoor = 200.69576484681087
SN.node[350].yCoor = 44.71558307387903
SN.node[351].xCoor = 238.53800605114213
SN.node[351].yCoor = 58.775121901500256
SN.node[352].xCoor = 249.89850604896495
SN.node[352].yCoor = 59.65886488444903
SN.node[353].xCoor = 277.4838891783604
SN.node[353].yCoor = 43.79503056620359
SN.node[354].xCoor = 285.87498200189134
SN.node[354].yCoor = 53.83964159410351
SN.node[355].xCoor = 305.9611396579463
SN.node[355].yCoor = 48.775127995528635
SN.node[356].xCoor = 339.06983898021684
SN.node[356].yCoor = 49.958637074981766
SN.node[357].xCoor = 355.54934452402955
SN.node[357].yCoor = 51.593421991138484
SN.node[358].xCoor = 361.1359355821393
SN.node[358].yCoor = 41.62830627360023