[General]

# ==========================================================
# Always include the main Castalia.ini file
# ==========================================================

include ../Parameters/Castalia.ini

sim-time-limit = 15s

#include wsn_experiment.ini

SN.wirelessChannel.onlyStaticNodes = true
SN.wirelessChannel.sigma = 0
SN.wirelessChannel.bidirectionalSigma = 0
# Choose a radio and set the Tx power to a low value so
# that node's mobility has a better effect on connectivity
SN.node[*].Communication.Radio.RadioParametersFile = "../Parameters/Radio/CC2420.txt"
SN.node[*].Communication.Radio.TxOutputPower = "-5dBm"
SN.wirelessChannel.pathLossExponent = 2.4
SN.wirelessChannel.PLd0 = 51.55056 # 40m -> PLd0 = (-5dBm - max(-95dBm, -100dBm)) - 10 * pathLossExponent * log(40m)
SN.node[*].Communication.Radio.mode = "IDEAL"
SN.node[*].Communication.Radio.collisionModel = 0

SN.node[*].Communication.MACProtocolName = "TunableMAC"
SN.node[*].Communication.MAC.dutyCycle = 1.0
SN.node[*].Communication.MAC.randomTxOffset = 0
SN.node[*].Communication.MAC.backoffType = 2

SN.node[*].Communication.RoutingProtocolName = "GpsrRouting"
# be carefull, turning debig info on may generate a lot of trace data
SN.node[*].Communication.Routing.collectTraceInfo = true

SN.node[*].ApplicationName = "SimplePairApplication"
SN.node[*].Application.collectTraceInfo = false

#SN.node[0].Application.packet_rate = 0.2
#SN.node[0].Application.maxData = 100
#SN.node[0].Application.startupDelay = 10
#SN.node[0].Application.nextRecipient = "2"


SN.numNodes = 500
SN.field_x = 400
SN.field_y = 400
SN.node[0].xCoor = 6.420698389663282
SN.node[0].yCoor = 10.045965425313739
SN.node[1].xCoor = 32.134729772116195
SN.node[1].yCoor = 9.255476932572213
SN.node[2].xCoor = 46.2471615267417
SN.node[2].yCoor = 15.54328669248719
SN.node[3].xCoor = 77.62184245301404
SN.node[3].yCoor = 17.87856327610524
SN.node[4].xCoor = 82.86732228848437
SN.node[4].yCoor = 2.7928933775079168
SN.node[5].xCoor = 107.79112299742167
SN.node[5].yCoor = 10.915613679252129
SN.node[6].xCoor = 139.53675079178396
SN.node[6].yCoor = 1.0640510776448098
SN.node[7].xCoor = 153.6293673946197
SN.node[7].yCoor = 1.5589175403223887
SN.node[8].xCoor = 178.0318224246266
SN.node[8].yCoor = 7.993653286566489
SN.node[9].xCoor = 189.36003685640932
SN.node[9].yCoor = 19.741862196915566
SN.node[10].xCoor = 210.21317254899836
SN.node[10].yCoor = 16.087853269159247
SN.node[11].xCoor = 238.09951273853466
SN.node[11].yCoor = 18.76552922124194
SN.node[12].xCoor = 256.1411076999849
SN.node[12].yCoor = 14.987325335571434
SN.node[13].xCoor = 271.19269454995174
SN.node[13].yCoor = 1.842815189638678
SN.node[14].xCoor = 295.626615911167
SN.node[14].yCoor = 15.097498753347418
SN.node[15].xCoor = 316.1011377337358
SN.node[15].yCoor = 2.378706431222577
SN.node[16].xCoor = 333.2048043963955
SN.node[16].yCoor = 9.647807289503763
SN.node[17].xCoor = 356.85042832666744
SN.node[17].yCoor = 11.491375465918644
SN.node[18].xCoor = 364.3712316814179
SN.node[18].yCoor = 12.494969368195399
SN.node[19].xCoor = 386.1721416913704
SN.node[19].yCoor = 9.771304365126618
SN.node[20].xCoor = 10.989603064158073
SN.node[20].yCoor = 24.2489413085306
SN.node[21].xCoor = 28.446072918988605
SN.node[21].yCoor = 28.575618936298007
SN.node[22].xCoor = 50.50053025286521
SN.node[22].yCoor = 39.15371212102015
SN.node[23].xCoor = 65.04878329188509
SN.node[23].yCoor = 39.85517697099394
SN.node[24].xCoor = 89.35842338887241
SN.node[24].yCoor = 22.504864074983363
SN.node[25].xCoor = 112.56329966265024
SN.node[25].yCoor = 38.63797266441203
SN.node[26].xCoor = 132.31771783588914
SN.node[26].yCoor = 26.097713984800066
SN.node[27].xCoor = 155.6858817298946
SN.node[27].yCoor = 23.63133958468531
SN.node[28].xCoor = 167.01587183553477
SN.node[28].yCoor = 20.37105758837455
SN.node[29].xCoor = 186.9857723482734
SN.node[29].yCoor = 29.59521797349149
SN.node[30].xCoor = 215.6082181672952
SN.node[30].yCoor = 27.504518003133462
SN.node[31].xCoor = 226.99525776877624
SN.node[31].yCoor = 31.375847971880326
SN.node[32].xCoor = 246.89499822970046
SN.node[32].yCoor = 27.615576635801666
SN.node[33].xCoor = 269.47313624156914
SN.node[33].yCoor = 28.687176009407032
SN.node[34].xCoor = 283.59996740906547
SN.node[34].yCoor = 26.626655242700732
SN.node[35].xCoor = 310.8700093452113
SN.node[35].yCoor = 21.494273825904546
SN.node[36].xCoor = 324.8076504934521
SN.node[36].yCoor = 36.193823497377835
SN.node[37].xCoor = 353.66279929750647
SN.node[37].yCoor = 20.319142835866842
SN.node[38].xCoor = 370.2308318826358
SN.node[38].yCoor = 22.641015885967217
SN.node[39].xCoor = 384.35027994233593
SN.node[39].yCoor = 39.21587260975634
SN.node[40].xCoor = 15.144045123014337
SN.node[40].yCoor = 41.61189088402731
SN.node[41].xCoor = 26.16485123934907
SN.node[41].yCoor = 42.27935305574414
SN.node[42].xCoor = 43.552112263712836
SN.node[42].yCoor = 47.590732164155924
SN.node[43].xCoor = 68.76961290906559
SN.node[43].yCoor = 47.21106006863664
SN.node[44].xCoor = 86.75321005261561
SN.node[44].yCoor = 57.9000256247595
SN.node[45].xCoor = 104.33462166069151
SN.node[45].yCoor = 52.901867146939296
SN.node[46].xCoor = 128.72319461319276
SN.node[46].yCoor = 57.31525199437998
SN.node[47].xCoor = 154.28360752978816
SN.node[47].yCoor = 49.294122737462274
SN.node[48].xCoor = 173.0015657091933
SN.node[48].yCoor = 41.125212670696996
SN.node[49].xCoor = 189.82107886921165
SN.node[49].yCoor = 57.572084826058884
SN.node[50].xCoor = 204.20521840225948
SN.node[50].yCoor = 41.76368891541845
SN.node[51].xCoor = 232.33388256063046
SN.node[51].yCoor = 43.563944402962704
SN.node[52].xCoor = 247.65679429969774
SN.node[52].yCoor = 40.38854762066616
SN.node[53].xCoor = 261.6300214984913
SN.node[53].yCoor = 52.308028458740665
SN.node[54].xCoor = 280.9094248821105
SN.node[54].yCoor = 40.834404511319484
SN.node[55].xCoor = 311.32298365479704
SN.node[55].yCoor = 45.84817219995344
SN.node[56].xCoor = 332.8923822453905
SN.node[56].yCoor = 47.02292441953261
SN.node[57].xCoor = 351.5303132161498
SN.node[57].yCoor = 48.9573653580112
SN.node[58].xCoor = 368.2157458088868
SN.node[58].yCoor = 47.36340647208591
SN.node[59].xCoor = 389.4909631729646
SN.node[59].yCoor = 49.299458528825504
SN.node[60].xCoor = 18.052113139544772
SN.node[60].yCoor = 79.78774205819565
SN.node[61].xCoor = 29.99461957702485
SN.node[61].yCoor = 65.57269553450595
SN.node[62].xCoor = 47.53356775252197
SN.node[62].yCoor = 72.89216858118701
SN.node[63].xCoor = 73.01759685111492
SN.node[63].yCoor = 74.29818230053178
SN.node[64].xCoor = 99.22510538984642
SN.node[64].yCoor = 68.116454856285
SN.node[65].xCoor = 118.41963191213244
SN.node[65].yCoor = 60.13404009144542
SN.node[66].xCoor = 134.26890700828267
SN.node[66].yCoor = 62.06460502293473
SN.node[67].xCoor = 154.8566539841954
SN.node[67].yCoor = 61.257852452238424
SN.node[68].xCoor = 172.06888285811868
SN.node[68].yCoor = 78.11748845220659
SN.node[69].xCoor = 193.3297261639724
SN.node[69].yCoor = 74.46372497209093
SN.node[70].xCoor = 212.95997578296812
SN.node[70].yCoor = 72.82142097548045
SN.node[71].xCoor = 234.4889514990629
SN.node[71].yCoor = 74.38738768774073
SN.node[72].xCoor = 246.6325404248075
SN.node[72].yCoor = 68.0527726323051
SN.node[73].xCoor = 265.35604053468035
SN.node[73].yCoor = 68.68322510283491
SN.node[74].xCoor = 283.25984723042404
SN.node[74].yCoor = 78.18659326022828
SN.node[75].xCoor = 303.15791942622764
SN.node[75].yCoor = 74.64985967053805
SN.node[76].xCoor = 333.1347511526594
SN.node[76].yCoor = 70.53378121595976
SN.node[77].xCoor = 345.6133259964586
SN.node[77].yCoor = 77.76578641410447
SN.node[78].xCoor = 373.17712553781
SN.node[78].yCoor = 67.05987089964584
SN.node[79].xCoor = 397.932584856704
SN.node[79].yCoor = 72.52681002333752
SN.node[80].xCoor = 16.82948381094885
SN.node[80].yCoor = 96.52761255841966
SN.node[81].xCoor = 34.935489362083516
SN.node[81].yCoor = 90.26573876159276
SN.node[82].xCoor = 59.113924050087064
SN.node[82].yCoor = 86.44825313460152
SN.node[83].xCoor = 79.7162626367868
SN.node[83].yCoor = 85.84536642969272
SN.node[84].xCoor = 99.61450020829442
SN.node[84].yCoor = 84.94046784252048
SN.node[85].xCoor = 103.98244392658529
SN.node[85].yCoor = 86.87531026465486
SN.node[86].xCoor = 121.06509429722281
SN.node[86].yCoor = 88.69080582328901
SN.node[87].xCoor = 155.8833279670593
SN.node[87].yCoor = 92.99779703013445
SN.node[88].xCoor = 175.53056935160708
SN.node[88].yCoor = 83.60420930747625
SN.node[89].xCoor = 182.62647096510082
SN.node[89].yCoor = 94.52818341082956
SN.node[90].xCoor = 219.0936413188673
SN.node[90].yCoor = 98.1523500388721
SN.node[91].xCoor = 229.43404560825115
SN.node[91].yCoor = 88.25673060076346
SN.node[92].xCoor = 246.84325547083785
SN.node[92].yCoor = 98.01992961112495
SN.node[93].xCoor = 263.1339492298306
SN.node[93].yCoor = 84.5422600408751
SN.node[94].xCoor = 289.1965463618586
SN.node[94].yCoor = 89.82056322312825
SN.node[95].xCoor = 305.01859841383794
SN.node[95].yCoor = 83.537297528764
SN.node[96].xCoor = 333.80886379986043
SN.node[96].yCoor = 93.72103976621383
SN.node[97].xCoor = 354.6841102663371
SN.node[97].yCoor = 96.25169692784904
SN.node[98].xCoor = 372.51289264702723
SN.node[98].yCoor = 91.03703438099107
SN.node[99].xCoor = 387.3180161509125
SN.node[99].yCoor = 89.36787270645557
SN.node[100].xCoor = 9.41341787952243
SN.node[100].yCoor = 101.75825324737319
SN.node[101].xCoor = 28.510363593624536
SN.node[101].yCoor = 110.55384686418391
SN.node[102].xCoor = 40.51809801474525
SN.node[102].yCoor = 102.20190853109929
SN.node[103].xCoor = 73.5421090274687
SN.node[103].yCoor = 107.82592728030619
SN.node[104].xCoor = 88.09436154336393
SN.node[104].yCoor = 102.77835992546893
SN.node[105].xCoor = 108.84949807569302
SN.node[105].yCoor = 118.74943521698145
SN.node[106].xCoor = 136.67312815033623
SN.node[106].yCoor = 108.67636078945364
SN.node[107].xCoor = 143.36049661085127
SN.node[107].yCoor = 103.93675517046279
SN.node[108].xCoor = 170.99421618344994
SN.node[108].yCoor = 112.54345602068764
SN.node[109].xCoor = 191.491659880132
SN.node[109].yCoor = 117.3172423896743
SN.node[110].xCoor = 208.99668832369048
SN.node[110].yCoor = 103.24583777353418
SN.node[111].xCoor = 238.32525989424718
SN.node[111].yCoor = 105.5176890108117
SN.node[112].xCoor = 259.5444628419385
SN.node[112].yCoor = 107.7980716631438
SN.node[113].xCoor = 265.99793766423767
SN.node[113].yCoor = 116.31876283207862
SN.node[114].xCoor = 290.8128001601178
SN.node[114].yCoor = 110.1389438563846
SN.node[115].xCoor = 318.48674069176127
SN.node[115].yCoor = 107.55124560178
SN.node[116].xCoor = 321.6635444465574
SN.node[116].yCoor = 100.21703069410212
SN.node[117].xCoor = 350.13665532549174
SN.node[117].yCoor = 110.37739983987568
SN.node[118].xCoor = 368.8082376691861
SN.node[118].yCoor = 103.99515710376747
SN.node[119].xCoor = 399.6072001275893
SN.node[119].yCoor = 100.70751367415335
SN.node[120].xCoor = 11.012278762539687
SN.node[120].yCoor = 131.13724490258764
SN.node[121].xCoor = 31.811575090762965
SN.node[121].yCoor = 128.5137234231423
SN.node[122].xCoor = 59.38889416181979
SN.node[122].yCoor = 126.05270443740807
SN.node[123].xCoor = 66.52951106934341
SN.node[123].yCoor = 121.2649670832203
SN.node[124].xCoor = 84.04184745321935
SN.node[124].yCoor = 129.8297915535888
SN.node[125].xCoor = 104.48962942590899
SN.node[125].yCoor = 138.59642348103174
SN.node[126].xCoor = 121.23019436952697
SN.node[126].yCoor = 133.5496081357726
SN.node[127].xCoor = 144.05363446228907
SN.node[127].yCoor = 138.12922449338333
SN.node[128].xCoor = 160.99924178878538
SN.node[128].yCoor = 124.89985712791278
SN.node[129].xCoor = 199.9144737503936
SN.node[129].yCoor = 129.9979906775579
SN.node[130].xCoor = 211.77945115869701
SN.node[130].yCoor = 139.25514488917705
SN.node[131].xCoor = 226.11791097818326
SN.node[131].yCoor = 137.94201228079805
SN.node[132].xCoor = 251.66996777754912
SN.node[132].yCoor = 134.44537393476648
SN.node[133].xCoor = 274.8633005715098
SN.node[133].yCoor = 133.4092721200685
SN.node[134].xCoor = 294.5680423250529
SN.node[134].yCoor = 127.31896567430991
SN.node[135].xCoor = 312.0369721832464
SN.node[135].yCoor = 120.3244466412963
SN.node[136].xCoor = 330.5981466220695
SN.node[136].yCoor = 137.0583118573877
SN.node[137].xCoor = 341.36854712583033
SN.node[137].yCoor = 135.42512789459965
SN.node[138].xCoor = 361.4356030979699
SN.node[138].yCoor = 123.87135762200379
SN.node[139].xCoor = 388.5971911261292
SN.node[139].yCoor = 129.69545305848445
SN.node[140].xCoor = 18.92896908565033
SN.node[140].yCoor = 152.33643026428385
SN.node[141].xCoor = 31.589014668602033
SN.node[141].yCoor = 143.32357249976468
SN.node[142].xCoor = 52.2087671027116
SN.node[142].yCoor = 151.74573860408233
SN.node[143].xCoor = 70.38882661441139
SN.node[143].yCoor = 155.19246185685552
SN.node[144].xCoor = 81.50567733821103
SN.node[144].yCoor = 155.66898453791697
SN.node[145].xCoor = 119.08341941189938
SN.node[145].yCoor = 157.98576893618787
SN.node[146].xCoor = 136.44616338839614
SN.node[146].yCoor = 143.01433977677667
SN.node[147].xCoor = 159.16273040070809
SN.node[147].yCoor = 148.7941983998162
SN.node[148].xCoor = 170.21463400792382
SN.node[148].yCoor = 149.82387681530366
SN.node[149].xCoor = 185.6845371492328
SN.node[149].yCoor = 150.9002679484065
SN.node[150].xCoor = 203.67349671635225
SN.node[150].yCoor = 157.62767375639245
SN.node[151].xCoor = 220.85220182561602
SN.node[151].yCoor = 149.33778843067165
SN.node[152].xCoor = 245.25122224923044
SN.node[152].yCoor = 144.23127070334738
SN.node[153].xCoor = 276.9716683220086
SN.node[153].yCoor = 156.8080241761098
SN.node[154].xCoor = 286.3876408154197
SN.node[154].yCoor = 154.82002070195634
SN.node[155].xCoor = 304.4599763502144
SN.node[155].yCoor = 154.27701759735876
SN.node[156].xCoor = 335.74032224555003
SN.node[156].yCoor = 148.14255437496274
SN.node[157].xCoor = 350.5902884153326
SN.node[157].yCoor = 157.41453712436805
SN.node[158].xCoor = 377.23625355693076
SN.node[158].yCoor = 155.25331487687794
SN.node[159].xCoor = 380.85647857601873
SN.node[159].yCoor = 144.91143470513484
SN.node[160].xCoor = 12.410866166499659
SN.node[160].yCoor = 175.7817014309792
SN.node[161].xCoor = 23.494343760979817
SN.node[161].yCoor = 170.5401221811011
SN.node[162].xCoor = 47.08840846851141
SN.node[162].yCoor = 170.9512049507809
SN.node[163].xCoor = 76.02807195131385
SN.node[163].yCoor = 170.18142070021023
SN.node[164].xCoor = 82.95488226013043
SN.node[164].yCoor = 162.07390899850654
SN.node[165].xCoor = 101.27285871957709
SN.node[165].yCoor = 165.27650973554557
SN.node[166].xCoor = 123.53018040150485
SN.node[166].yCoor = 163.69317817917496
SN.node[167].xCoor = 157.60773330375122
SN.node[167].yCoor = 173.01954289366643
SN.node[168].xCoor = 175.20838978471602
SN.node[168].yCoor = 161.86700831355728
SN.node[169].xCoor = 196.5873017476993
SN.node[169].yCoor = 172.8564977190684
SN.node[170].xCoor = 207.27267676738253
SN.node[170].yCoor = 166.1144237032577
SN.node[171].xCoor = 223.06379968256198
SN.node[171].yCoor = 164.42398693597795
SN.node[172].xCoor = 252.70893319355835
SN.node[172].yCoor = 167.60879286319422
SN.node[173].xCoor = 266.6623770097239
SN.node[173].yCoor = 168.73230099975135
SN.node[174].xCoor = 291.4095342662581
SN.node[174].yCoor = 172.37998206704017
SN.node[175].xCoor = 305.37636227056464
SN.node[175].yCoor = 170.56860356261393
SN.node[176].xCoor = 323.54899190182766
SN.node[176].yCoor = 175.4006495384043
SN.node[177].xCoor = 346.1900694725153
SN.node[177].yCoor = 179.27171508931053
SN.node[178].xCoor = 364.01145842304436
SN.node[178].yCoor = 167.33858378653156
SN.node[179].xCoor = 394.9507437195828
SN.node[179].yCoor = 169.00861724078888
SN.node[180].xCoor = 5.148660080065994
SN.node[180].yCoor = 195.21112931913362
SN.node[181].xCoor = 23.2347556413827
SN.node[181].yCoor = 197.50987639468957
SN.node[182].xCoor = 44.040814081813544
SN.node[182].yCoor = 194.55738149546062
SN.node[183].xCoor = 69.28160416885832
SN.node[183].yCoor = 181.61114419782265
SN.node[184].xCoor = 96.69267650736313
SN.node[184].yCoor = 194.63152704055463
SN.node[185].xCoor = 108.95525485556604
SN.node[185].yCoor = 186.6934820513904
SN.node[186].xCoor = 132.6982909470714
SN.node[186].yCoor = 182.3508117071342
SN.node[187].xCoor = 142.96011827418656
SN.node[187].yCoor = 193.80788481229024
SN.node[188].xCoor = 162.53399052769558
SN.node[188].yCoor = 184.14633213099972
SN.node[189].xCoor = 192.92579998326244
SN.node[189].yCoor = 180.90491322720396
SN.node[190].xCoor = 209.0371467732033
SN.node[190].yCoor = 195.10838246930476
SN.node[191].xCoor = 226.60618768079098
SN.node[191].yCoor = 190.38857172009853
SN.node[192].xCoor = 251.54036189833522
SN.node[192].yCoor = 183.0599066821405
SN.node[193].xCoor = 263.15831698034117
SN.node[193].yCoor = 184.379026742931
SN.node[194].xCoor = 290.1495827220259
SN.node[194].yCoor = 191.06442857969918
SN.node[195].xCoor = 304.1131048924362
SN.node[195].yCoor = 188.23573292683434
SN.node[196].xCoor = 320.2277703160613
SN.node[196].yCoor = 184.22941768557862
SN.node[197].xCoor = 356.1943371857526
SN.node[197].yCoor = 185.40545626025178
SN.node[198].xCoor = 375.54462270264685
SN.node[198].yCoor = 184.8436635714535
SN.node[199].xCoor = 395.24075312452516
SN.node[199].yCoor = 195.1274280768984
SN.node[200].xCoor = 15.739886018818382
SN.node[200].yCoor = 211.33569367496742
SN.node[201].xCoor = 20.490481243167057
SN.node[201].yCoor = 217.33733067216986
SN.node[202].xCoor = 45.989120751981496
SN.node[202].yCoor = 205.0766410832528
SN.node[203].xCoor = 71.96834416164505
SN.node[203].yCoor = 208.05934440257056
SN.node[204].xCoor = 92.63194792757376
SN.node[204].yCoor = 212.29500030449134
SN.node[205].xCoor = 102.86028162300813
SN.node[205].yCoor = 218.1520125016006
SN.node[206].xCoor = 128.89546554671276
SN.node[206].yCoor = 205.2822487945797
SN.node[207].xCoor = 157.10540032203988
SN.node[207].yCoor = 208.85727205903322
SN.node[208].xCoor = 179.83729205612622
SN.node[208].yCoor = 208.03908313883008
SN.node[209].xCoor = 183.79198844852706
SN.node[209].yCoor = 209.32386359229415
SN.node[210].xCoor = 218.07421770843578
SN.node[210].yCoor = 205.28342348157096
SN.node[211].xCoor = 220.26066986905224
SN.node[211].yCoor = 217.7916690378471
SN.node[212].xCoor = 250.79999825469608
SN.node[212].yCoor = 215.31707254286184
SN.node[213].xCoor = 276.79399467112603
SN.node[213].yCoor = 212.85615071949908
SN.node[214].xCoor = 294.2338058457075
SN.node[214].yCoor = 213.80890332766825
SN.node[215].xCoor = 303.7738711342272
SN.node[215].yCoor = 214.7246485987464
SN.node[216].xCoor = 322.8085969578398
SN.node[216].yCoor = 209.51452541044674
SN.node[217].xCoor = 350.08306722085985
SN.node[217].yCoor = 212.72656059649452
SN.node[218].xCoor = 361.5570236786757
SN.node[218].yCoor = 217.59465562046714
SN.node[219].xCoor = 396.71056680790593
SN.node[219].yCoor = 205.51268441948991
SN.node[220].xCoor = 11.94783602126095
SN.node[220].yCoor = 235.1501930891128
SN.node[221].xCoor = 39.298828116261056
SN.node[221].yCoor = 231.97317751175703
SN.node[222].xCoor = 55.89349783531153
SN.node[222].yCoor = 224.12279378154486
SN.node[223].xCoor = 72.84398489489752
SN.node[223].yCoor = 226.66097019778402
SN.node[224].xCoor = 80.18927889734049
SN.node[224].yCoor = 231.5188339587737
SN.node[225].xCoor = 107.20016254322387
SN.node[225].yCoor = 228.5164918469682
SN.node[226].xCoor = 138.07512350168926
SN.node[226].yCoor = 238.67744323309338
SN.node[227].xCoor = 141.95970434747122
SN.node[227].yCoor = 239.8165195913104
SN.node[228].xCoor = 174.95406902983987
SN.node[228].yCoor = 239.83884159054665
SN.node[229].xCoor = 191.28250290948247
SN.node[229].yCoor = 228.11958803598708
SN.node[230].xCoor = 208.16665756170192
SN.node[230].yCoor = 232.57963448980803
SN.node[231].xCoor = 235.15593398611318
SN.node[231].yCoor = 232.68267986188087
SN.node[232].xCoor = 240.99680381857496
SN.node[232].yCoor = 224.5663983558257
SN.node[233].xCoor = 260.7349814702851
SN.node[233].yCoor = 233.9245799162097
SN.node[234].xCoor = 295.4168264403767
SN.node[234].yCoor = 225.6359917807771
SN.node[235].xCoor = 314.16550681458637
SN.node[235].yCoor = 232.48816566719273
SN.node[236].xCoor = 321.14343845026025
SN.node[236].yCoor = 234.2284866226218
SN.node[237].xCoor = 340.5187036967276
SN.node[237].yCoor = 231.77292710985392
SN.node[238].xCoor = 375.2541201581312
SN.node[238].yCoor = 230.53559623503492
SN.node[239].xCoor = 385.64188850962347
SN.node[239].yCoor = 223.38292226782843
SN.node[240].xCoor = 5.630431407605534
SN.node[240].yCoor = 242.6679680466466
SN.node[241].xCoor = 30.953856236869864
SN.node[241].yCoor = 243.11479729943264
SN.node[242].xCoor = 43.719882021501434
SN.node[242].yCoor = 250.6395232450181
SN.node[243].xCoor = 71.75707808487829
SN.node[243].yCoor = 247.09842160841953
SN.node[244].xCoor = 88.79617903828995
SN.node[244].yCoor = 241.75758120390444
SN.node[245].xCoor = 116.63856521438346
SN.node[245].yCoor = 253.39359238561204
SN.node[246].xCoor = 132.27709735365602
SN.node[246].yCoor = 244.29851109346998
SN.node[247].xCoor = 151.04094530824204
SN.node[247].yCoor = 248.64186000915498
SN.node[248].xCoor = 174.55924784258488
SN.node[248].yCoor = 245.83836077478887
SN.node[249].xCoor = 186.85933953766747
SN.node[249].yCoor = 240.3242082525783
SN.node[250].xCoor = 204.3715272400821
SN.node[250].yCoor = 250.1619989624803
SN.node[251].xCoor = 231.3611357804704
SN.node[251].yCoor = 242.09339151825094
SN.node[252].xCoor = 258.99573780154674
SN.node[252].yCoor = 253.5463567381549
SN.node[253].xCoor = 260.0602332798521
SN.node[253].yCoor = 259.2407545568731
SN.node[254].xCoor = 298.37920687260015
SN.node[254].yCoor = 248.13639563083555
SN.node[255].xCoor = 302.2987165970198
SN.node[255].yCoor = 248.73673022441008
SN.node[256].xCoor = 323.0048914180843
SN.node[256].yCoor = 243.74612799364147
SN.node[257].xCoor = 340.69931502533234
SN.node[257].yCoor = 256.6764139599711
SN.node[258].xCoor = 362.58904176371686
SN.node[258].yCoor = 243.81355727276394
SN.node[259].xCoor = 380.8732414014324
SN.node[259].yCoor = 244.06906992388144
SN.node[260].xCoor = 4.316003057601088
SN.node[260].yCoor = 275.45070107616584
SN.node[261].xCoor = 26.49030736670366
SN.node[261].yCoor = 268.1739363527762
SN.node[262].xCoor = 49.48816923284305
SN.node[262].yCoor = 269.2194617609941
SN.node[263].xCoor = 77.6347804536303
SN.node[263].yCoor = 265.00669788304003
SN.node[264].xCoor = 90.04729829943786
SN.node[264].yCoor = 278.19577766737774
SN.node[265].xCoor = 109.74745524275605
SN.node[265].yCoor = 272.35445725403156
SN.node[266].xCoor = 139.96382211890747
SN.node[266].yCoor = 269.78573778779315
SN.node[267].xCoor = 143.71661266763456
SN.node[267].yCoor = 276.45670863057444
SN.node[268].xCoor = 160.84479433607527
SN.node[268].yCoor = 274.67280979989204
SN.node[269].xCoor = 191.5854563317557
SN.node[269].yCoor = 266.7436754126127
SN.node[270].xCoor = 218.71807435381243
SN.node[270].yCoor = 272.29295958659316
SN.node[271].xCoor = 223.51189735501586
SN.node[271].yCoor = 275.50018139811584
SN.node[272].xCoor = 256.9752746517366
SN.node[272].yCoor = 275.38487129451823
SN.node[273].xCoor = 260.99539014792464
SN.node[273].yCoor = 279.82079095261736
SN.node[274].xCoor = 294.6858935149509
SN.node[274].yCoor = 276.5647862621761
SN.node[275].xCoor = 305.39612337580394
SN.node[275].yCoor = 263.6886948118913
SN.node[276].xCoor = 329.05358927082347
SN.node[276].yCoor = 265.9052015496231
SN.node[277].xCoor = 345.50850978002444
SN.node[277].yCoor = 274.5580977737705
SN.node[278].xCoor = 367.05201451042825
SN.node[278].yCoor = 261.87180981566854
SN.node[279].xCoor = 383.60325206536174
SN.node[279].yCoor = 269.65007812403474
SN.node[280].xCoor = 11.62577100521371
SN.node[280].yCoor = 298.09691442646493
SN.node[281].xCoor = 26.425797893885292
SN.node[281].yCoor = 296.928673799109
SN.node[282].xCoor = 52.07543052407008
SN.node[282].yCoor = 284.4448865079428
SN.node[283].xCoor = 63.676685864833345
SN.node[283].yCoor = 285.93225604725774
SN.node[284].xCoor = 91.95467806223262
SN.node[284].yCoor = 285.05713694770225
SN.node[285].xCoor = 117.15585301877815
SN.node[285].yCoor = 288.62849218831286
SN.node[286].xCoor = 127.91520431014489
SN.node[286].yCoor = 284.7274559474336
SN.node[287].xCoor = 154.95096425198903
SN.node[287].yCoor = 282.3235020805691
SN.node[288].xCoor = 165.03992529881188
SN.node[288].yCoor = 289.343374159494
SN.node[289].xCoor = 185.22885327664955
SN.node[289].yCoor = 290.4187340108267
SN.node[290].xCoor = 217.3510202506041
SN.node[290].yCoor = 289.9316623192149
SN.node[291].xCoor = 231.81196690343927
SN.node[291].yCoor = 297.2666997121377
SN.node[292].xCoor = 242.1183757647963
SN.node[292].yCoor = 296.4484867129004
SN.node[293].xCoor = 262.99723078090756
SN.node[293].yCoor = 281.2593477613413
SN.node[294].xCoor = 280.4262062843461
SN.node[294].yCoor = 286.99881436239025
SN.node[295].xCoor = 318.10087068243473
SN.node[295].yCoor = 290.64861057761937
SN.node[296].xCoor = 330.72513378372315
SN.node[296].yCoor = 299.92032281032823
SN.node[297].xCoor = 345.02059500945455
SN.node[297].yCoor = 285.85062970117866
SN.node[298].xCoor = 374.9360911442234
SN.node[298].yCoor = 288.9251947875543
SN.node[299].xCoor = 389.81272296216935
SN.node[299].yCoor = 288.2626190814764
SN.node[300].xCoor = 8.341823830526902
SN.node[300].yCoor = 319.66970680318576
SN.node[301].xCoor = 24.853361380588495
SN.node[301].yCoor = 306.22678023513583
SN.node[302].xCoor = 40.043587553540746
SN.node[302].yCoor = 305.92695575948017
SN.node[303].xCoor = 60.75279174324811
SN.node[303].yCoor = 313.5312224616971
SN.node[304].xCoor = 83.71119609053622
SN.node[304].yCoor = 313.08685619597446
SN.node[305].xCoor = 112.96544143931747
SN.node[305].yCoor = 302.2168400416125
SN.node[306].xCoor = 126.84148520701136
SN.node[306].yCoor = 315.03907093222693
SN.node[307].xCoor = 143.7697642591847
SN.node[307].yCoor = 310.69865625482277
SN.node[308].xCoor = 164.6503666885969
SN.node[308].yCoor = 318.286834415042
SN.node[309].xCoor = 183.80474336127733
SN.node[309].yCoor = 307.2830156944956
SN.node[310].xCoor = 214.4207178211224
SN.node[310].yCoor = 305.5458329586207
SN.node[311].xCoor = 238.43108688945006
SN.node[311].yCoor = 319.5355768801063
SN.node[312].xCoor = 245.60410918459127
SN.node[312].yCoor = 303.33401113419114
SN.node[313].xCoor = 268.78923077248885
SN.node[313].yCoor = 318.1407563805952
SN.node[314].xCoor = 298.732653754411
SN.node[314].yCoor = 302.41641320196743
SN.node[315].xCoor = 309.70351381795155
SN.node[315].yCoor = 312.5056522526004
SN.node[316].xCoor = 322.5529861237516
SN.node[316].yCoor = 317.8133830578106
SN.node[317].xCoor = 352.5659295859838
SN.node[317].yCoor = 301.65309466823413
SN.node[318].xCoor = 364.2058235439684
SN.node[318].yCoor = 303.11341052948666
SN.node[319].xCoor = 394.8470072785523
SN.node[319].yCoor = 315.85953900424704
SN.node[320].xCoor = 15.007070754349838
SN.node[320].yCoor = 329.7940670732193
SN.node[321].xCoor = 39.16576823414111
SN.node[321].yCoor = 320.2374472282596
SN.node[322].xCoor = 44.783033928136064
SN.node[322].yCoor = 321.09022542332093
SN.node[323].xCoor = 79.38663162995593
SN.node[323].yCoor = 336.8971109927419
SN.node[324].xCoor = 89.93395000309962
SN.node[324].yCoor = 330.88560602224675
SN.node[325].xCoor = 114.15962150380675
SN.node[325].yCoor = 329.72595628687276
SN.node[326].xCoor = 131.09566265479688
SN.node[326].yCoor = 339.43902248032015
SN.node[327].xCoor = 148.54889875992546
SN.node[327].yCoor = 335.7749137539195
SN.node[328].xCoor = 163.12125879359652
SN.node[328].yCoor = 333.34757878148093
SN.node[329].xCoor = 196.9778546216837
SN.node[329].yCoor = 335.51388285075717
SN.node[330].xCoor = 203.8995213163439
SN.node[330].yCoor = 328.9808855298605
SN.node[331].xCoor = 222.72512201849378
SN.node[331].yCoor = 332.7435349817026
SN.node[332].xCoor = 254.3137365433564
SN.node[332].yCoor = 338.80886226652973
SN.node[333].xCoor = 272.56090983962736
SN.node[333].yCoor = 320.59197159162846
SN.node[334].xCoor = 287.8029846585936
SN.node[334].yCoor = 330.8857385320179
SN.node[335].xCoor = 318.5700889766763
SN.node[335].yCoor = 335.92930904081817
SN.node[336].xCoor = 321.047111074191
SN.node[336].yCoor = 331.72834137440293
SN.node[337].xCoor = 344.57807621820706
SN.node[337].yCoor = 335.6900879537123
SN.node[338].xCoor = 365.77946120778745
SN.node[338].yCoor = 339.4116535050562
SN.node[339].xCoor = 388.7233620872828
SN.node[339].yCoor = 323.58463080671424
SN.node[340].xCoor = 4.696148818086776
SN.node[340].yCoor = 341.06694463500105
SN.node[341].xCoor = 23.653671247707663
SN.node[341].yCoor = 358.60341145452566
SN.node[342].xCoor = 44.26950581822163
SN.node[342].yCoor = 357.33729468871525
SN.node[343].xCoor = 79.7142763988673
SN.node[343].yCoor = 354.6704205016531
SN.node[344].xCoor = 91.6165820973043
SN.node[344].yCoor = 341.80932222948076
SN.node[345].xCoor = 105.37715494698806
SN.node[345].yCoor = 346.2921830940769
SN.node[346].xCoor = 129.0332469129287
SN.node[346].yCoor = 349.0865244360077
SN.node[347].xCoor = 144.58804314183652
SN.node[347].yCoor = 341.8695966330139
SN.node[348].xCoor = 162.0447283126705
SN.node[348].yCoor = 342.496590907325
SN.node[349].xCoor = 198.8549329224153
SN.node[349].yCoor = 347.1695245177819
SN.node[350].xCoor = 215.535844235051
SN.node[350].yCoor = 347.67088400387445
SN.node[351].xCoor = 224.6912780244089
SN.node[351].yCoor = 356.2582658659357
SN.node[352].xCoor = 259.766598507033
SN.node[352].yCoor = 354.3709647014897
SN.node[353].xCoor = 278.6919646996676
SN.node[353].yCoor = 359.3997221943942
SN.node[354].xCoor = 299.50467837501674
SN.node[354].yCoor = 359.5293258446218
SN.node[355].xCoor = 302.7713820084571
SN.node[355].yCoor = 340.4165002951862
SN.node[356].xCoor = 331.8200476303184
SN.node[356].yCoor = 350.12637119829765
SN.node[357].xCoor = 345.01115953014124
SN.node[357].yCoor = 357.86248055965734
SN.node[358].xCoor = 376.3207747091385
SN.node[358].yCoor = 354.5700385080105
SN.node[359].xCoor = 383.5282093573581
SN.node[359].yCoor = 350.0338246193061
SN.node[360].xCoor = 15.7755292183387
SN.node[360].yCoor = 373.13523795351585
SN.node[361].xCoor = 25.74682333359966
SN.node[361].yCoor = 369.21004967664
SN.node[362].xCoor = 43.29163309707012