[General]

# ==========================================================
# Always include the main Castalia.ini file
# ==========================================================

include ../Parameters/Castalia.ini

sim-time-limit = 15s

#include wsn_experiment.ini

SN.wirelessChannel.onlyStaticNodes = true
SN.wirelessChannel.sigma = 0
SN.wirelessChannel.bidirectionalSigma = 0
# Choose a radio and set the Tx power to a low value so
# that node's mobility has a better effect on connectivity
SN.node[*].Communication.Radio.RadioParametersFile = "../Parameters/Radio/CC2420.txt"
SN.node[*].Communication.Radio.TxOutputPower = "-5dBm"
SN.wirelessChannel.pathLossExponent = 2.4
SN.wirelessChannel.PLd0 = 51.55056 # 40m -> PLd0 = (-5dBm - max(-95dBm, -100dBm)) - 10 * pathLossExponent * log(40m)
SN.node[*].Communication.Radio.mode = "IDEAL"
SN.node[*].Communication.Radio.collisionModel = 0

#SN.node[*].Communication.MACProtocolName = "TunableMAC"
#SN.node[*].Communication.MAC.dutyCycle = 1.0
#SN.node[*].Communication.MAC.randomTxOffset = 0
#SN.node[*].Communication.MAC.backoffType = 2

#SN.node[*].Communication.RoutingProtocolName = "GreedyRouting"
# be carefull, turning debig info on may generate a lot of trace data
SN.node[*].Communication.Routing.collectTraceInfo = true

SN.node[*].ApplicationName = "SimplePairApplication"
SN.node[*].Application.collectTraceInfo = false

#SN.node[0].Application.packet_rate = 0.2
#SN.node[0].Application.maxData = 100
#SN.node[0].Application.startupDelay = 10
#SN.node[0].Application.nextRecipient = "2"


SN.node[*].Communication.RoutingProtocolName = "StableRouting"
SN.node[*].Communication.MACProtocolName = "TMAC"
SN.node[*].Communication.MAC.listenTimeout = 61
SN.node[*].Communication.MAC.disableTAextension = true
SN.node[*].Communication.MAC.conservativeTA = false
SN.node[*].Communication.MAC.collisionResolution = 0
SN.numNodes = 1690
SN.field_x = 800
SN.field_y = 800
SN.node[0].xCoor = 10.316856497216094
SN.node[0].yCoor = 27.445697523860446
SN.node[1].xCoor = 32.828771405387386
SN.node[1].yCoor = 21.177194491521945
SN.node[2].xCoor = 15.161763621537974
SN.node[2].yCoor = 7.616284771827546
SN.node[3].xCoor = 13.458192174940953
SN.node[3].yCoor = 27.281668434467903
SN.node[4].xCoor = 28.186380373029607
SN.node[4].yCoor = 39.632714171566114
SN.node[5].xCoor = 64.00241679427249
SN.node[5].yCoor = 9.166865950949106
SN.node[6].xCoor = 49.4799251115988
SN.node[6].yCoor = 14.750638547258994
SN.node[7].xCoor = 42.80050663354436
SN.node[7].yCoor = 16.95374151967212
SN.node[8].xCoor = 71.74743628623426
SN.node[8].yCoor = 16.42417445208645
SN.node[9].xCoor = 58.22799103373913
SN.node[9].yCoor = 2.806663920102581
SN.node[10].xCoor = 90.03552612165183
SN.node[10].yCoor = 5.253560731156357
SN.node[11].xCoor = 108.80470225962134
SN.node[11].yCoor = 4.383523419992592
SN.node[12].xCoor = 117.94361318629765
SN.node[12].yCoor = 25.262917766959898
SN.node[13].xCoor = 93.03340263043954
SN.node[13].yCoor = 31.68493283966482
SN.node[14].xCoor = 118.75501397074193
SN.node[14].yCoor = 9.839835596541135
SN.node[15].xCoor = 153.31937535388545
SN.node[15].yCoor = 4.842355395865985
SN.node[16].xCoor = 157.71066102492478
SN.node[16].yCoor = 34.64771768229994
SN.node[17].xCoor = 123.23608443317924
SN.node[17].yCoor = 3.185320567664851
SN.node[18].xCoor = 125.5629201621642
SN.node[18].yCoor = 39.05185606090139
SN.node[19].xCoor = 132.75438065464343
SN.node[19].yCoor = 17.29076014237289
SN.node[20].xCoor = 191.94188802892788
SN.node[20].yCoor = 36.08506165987165
SN.node[21].xCoor = 195.70938714528697
SN.node[21].yCoor = 9.736503322974546
SN.node[22].xCoor = 164.14678429274986
SN.node[22].yCoor = 19.3917422127544
SN.node[23].xCoor = 168.25746600098034
SN.node[23].yCoor = 34.049481912832526
SN.node[24].xCoor = 170.06223995986613
SN.node[24].yCoor = 37.68598760820887
SN.node[25].xCoor = 206.74546480517841
SN.node[25].yCoor = 8.48401559120477
SN.node[26].xCoor = 201.58225533659936
SN.node[26].yCoor = 27.857131372261303
SN.node[27].xCoor = 214.28735577854465
SN.node[27].yCoor = 22.766565769047055
SN.node[28].xCoor = 229.83478285252687
SN.node[28].yCoor = 13.653475426295039
SN.node[29].xCoor = 210.9454378288343
SN.node[29].yCoor = 30.128611055910504
SN.node[30].xCoor = 269.4325173559304
SN.node[30].yCoor = 28.726677833577632
SN.node[31].xCoor = 270.88427090573373
SN.node[31].yCoor = 14.767226275462235
SN.node[32].xCoor = 246.15449037399327
SN.node[32].yCoor = 7.734711295678638
SN.node[33].xCoor = 274.27299884833053
SN.node[33].yCoor = 11.613858300830886
SN.node[34].xCoor = 251.40929498079734
SN.node[34].yCoor = 23.774120013700237
SN.node[35].xCoor = 300.5079248429775
SN.node[35].yCoor = 31.674953123703222
SN.node[36].xCoor = 281.4184749287176
SN.node[36].yCoor = 8.085127157377174
SN.node[37].xCoor = 316.7208707776408
SN.node[37].yCoor = 29.569635556670455
SN.node[38].xCoor = 311.0211899518708
SN.node[38].yCoor = 28.98624333026134
SN.node[39].xCoor = 292.5671166331932
SN.node[39].yCoor = 33.461295417438286
SN.node[40].xCoor = 352.39531174821946
SN.node[40].yCoor = 27.55802046456422
SN.node[41].xCoor = 336.99860249346625
SN.node[41].yCoor = 38.36003624873109
SN.node[42].xCoor = 355.5703812664559
SN.node[42].yCoor = 14.6617534541872
SN.node[43].xCoor = 322.3991878749698
SN.node[43].yCoor = 1.8019170374927285
SN.node[44].xCoor = 353.4142538257531
SN.node[44].yCoor = 3.7929889889759405
SN.node[45].xCoor = 390.74655368956184
SN.node[45].yCoor = 31.26176640248506
SN.node[46].xCoor = 396.1231035549738
SN.node[46].yCoor = 5.540789200870817
SN.node[47].xCoor = 389.79388940046925
SN.node[47].yCoor = 34.71321222355883
SN.node[48].xCoor = 398.19035965173555
SN.node[48].yCoor = 6.818923833381589
SN.node[49].xCoor = 381.27887882220546
SN.node[49].yCoor = 15.10925248974675
SN.node[50].xCoor = 438.5176855147787
SN.node[50].yCoor = 10.962878794023823
SN.node[51].xCoor = 429.60066768163114
SN.node[51].yCoor = 9.0089595526804
SN.node[52].xCoor = 401.5548852962345
SN.node[52].yCoor = 26.898437234963943
SN.node[53].xCoor = 401.90376332622895
SN.node[53].yCoor = 23.795607908465335
SN.node[54].xCoor = 402.8569628287451
SN.node[54].yCoor = 9.648734197416582
SN.node[55].xCoor = 473.3046834169884
SN.node[55].yCoor = 7.37921390556286
SN.node[56].xCoor = 442.7783781890918
SN.node[56].yCoor = 4.936679525480212
SN.node[57].xCoor = 479.55421824530765
SN.node[57].yCoor = 22.43054061772269
SN.node[58].xCoor = 454.5759347430381
SN.node[58].yCoor = 9.193090453588146
SN.node[59].xCoor = 464.8925530259657
SN.node[59].yCoor = 34.93916745965911
SN.node[60].xCoor = 506.7381635003158
SN.node[60].yCoor = 9.295160506082834
SN.node[61].xCoor = 497.8004866226992
SN.node[61].yCoor = 6.383061624689121
SN.node[62].xCoor = 514.6735588830506
SN.node[62].yCoor = 4.8789279084640125
SN.node[63].xCoor = 508.1000688637512
SN.node[63].yCoor = 4.527366582603305
SN.node[64].xCoor = 483.1054050936041
SN.node[64].yCoor = 9.00023828891058
SN.node[65].xCoor = 551.7433030034668
SN.node[65].yCoor = 16.088474884355144
SN.node[66].xCoor = 523.6189120149778
SN.node[66].yCoor = 34.37182856853962
SN.node[67].xCoor = 521.5871252540546
SN.node[67].yCoor = 0.055161452355063645
SN.node[68].xCoor = 545.8648600151967
SN.node[68].yCoor = 18.081849987584544
SN.node[69].xCoor = 537.7716558488751
SN.node[69].yCoor = 27.894712848114615
SN.node[70].xCoor = 590.6032483026718
SN.node[70].yCoor = 38.38181911388533
SN.node[71].xCoor = 598.7066896643755
SN.node[71].yCoor = 13.285940193634111
SN.node[72].xCoor = 580.0276619524063
SN.node[72].yCoor = 6.118082964956937
SN.node[73].xCoor = 599.1360585364529
SN.node[73].yCoor = 25.458360621234817
SN.node[74].xCoor = 572.6281066433951
SN.node[74].yCoor = 15.955230143213832
SN.node[75].xCoor = 626.406808682001
SN.node[75].yCoor = 37.924631622726665
SN.node[76].xCoor = 631.0834572710471
SN.node[76].yCoor = 24.423011653772633
SN.node[77].xCoor = 625.1082202668855
SN.node[77].yCoor = 19.38654192443434
SN.node[78].xCoor = 614.9839758466211
SN.node[78].yCoor = 27.770373438676252
SN.node[79].xCoor = 636.9940369648849
SN.node[79].yCoor = 34.625651250895245
SN.node[80].xCoor = 665.1121059213172
SN.node[80].yCoor = 19.06631367933077
SN.node[81].xCoor = 678.6832326674655
SN.node[81].yCoor = 10.427204462469257
SN.node[82].xCoor = 652.6776171588767
SN.node[82].yCoor = 11.996036728125263
SN.node[83].xCoor = 647.5229973237155
SN.node[83].yCoor = 9.33929328244103
SN.node[84].xCoor = 654.1207351484275
SN.node[84].yCoor = 24.29188484250532
SN.node[85].xCoor = 710.3512931030186
SN.node[85].yCoor = 13.755105397532681
SN.node[86].xCoor = 708.9101590252003
SN.node[86].yCoor = 31.98265354100095
SN.node[87].xCoor = 689.4353542938202
SN.node[87].yCoor = 38.41093276220904
SN.node[88].xCoor = 702.0287523773111
SN.node[88].yCoor = 15.718041956071174
SN.node[89].xCoor = 689.6651864732439
SN.node[89].yCoor = 27.430651798375656
SN.node[90].xCoor = 732.1188859939734
SN.node[90].yCoor = 6.301672839371211
SN.node[91].xCoor = 729.4133860069196
SN.node[91].yCoor = 4.398622132369985
SN.node[92].xCoor = 754.2994927620528
SN.node[92].yCoor = 15.07145845308055
SN.node[93].xCoor = 725.548641303324
SN.node[93].yCoor = 39.127768237456294
SN.node[94].xCoor = 732.0316626147273
SN.node[94].yCoor = 27.72679749899457
SN.node[95].xCoor = 796.3163225386879
SN.node[95].yCoor = 35.57686408815219
SN.node[96].xCoor = 767.1411880362659
SN.node[96].yCoor = 29.369809282610078
SN.node[97].xCoor = 769.8222958057272
SN.node[97].yCoor = 23.03502291955347
SN.node[98].xCoor = 792.9547241763723
SN.node[98].yCoor = 10.95464277764517
SN.node[99].xCoor = 765.589946843353
SN.node[99].yCoor = 29.370517315918914
SN.node[100].xCoor = 38.427916097557016
SN.node[100].yCoor = 72.19743882753491
SN.node[101].xCoor = 23.396428731674916
SN.node[101].yCoor = 73.44007060253097
SN.node[102].xCoor = 30.233056487487538
SN.node[102].yCoor = 65.54484737177035
SN.node[103].xCoor = 15.426066012642625
SN.node[103].yCoor = 78.62480448387996
SN.node[104].xCoor = 37.79391936898958
SN.node[104].yCoor = 61.93743977516422
SN.node[105].xCoor = 46.19882842278898
SN.node[105].yCoor = 67.05384693998971
SN.node[106].xCoor = 66.2858157269667
SN.node[106].yCoor = 63.74418597085267
SN.node[107].xCoor = 52.39110416611556
SN.node[107].yCoor = 52.98402144975775
SN.node[108].xCoor = 78.87663873050514
SN.node[108].yCoor = 66.12681390288611
SN.node[109].xCoor = 75.46667714234792
SN.node[109].yCoor = 77.48687418568858
SN.node[110].xCoor = 116.48346081991845
SN.node[110].yCoor = 54.61231957882112
SN.node[111].xCoor = 91.90011463357676
SN.node[111].yCoor = 68.56140485144977
SN.node[112].xCoor = 86.48819804896365
SN.node[112].yCoor = 56.73132459109376
SN.node[113].xCoor = 94.65497308343137
SN.node[113].yCoor = 52.04153844192615
SN.node[114].xCoor = 95.47585218717502
SN.node[114].yCoor = 77.76980340206441
SN.node[115].xCoor = 147.43191173551907
SN.node[115].yCoor = 47.80238364912239
SN.node[116].xCoor = 142.17883269185126
SN.node[116].yCoor = 68.71162129751974
SN.node[117].xCoor = 125.50576725720558
SN.node[117].yCoor = 78.22822659631548
SN.node[118].xCoor = 123.26908476142029
SN.node[118].yCoor = 75.17536526180538
SN.node[119].xCoor = 149.09059080802837
SN.node[119].yCoor = 58.30125802749512
SN.node[120].xCoor = 182.857237688191
SN.node[120].yCoor = 47.948508618129836
SN.node[121].xCoor = 199.58318489194835
SN.node[121].yCoor = 66.28931576864571
SN.node[122].xCoor = 188.86225706880262
SN.node[122].yCoor = 44.14496433369383
SN.node[123].xCoor = 168.85300322313452
SN.node[123].yCoor = 53.549871916473535
SN.node[124].xCoor = 163.78120574129542
SN.node[124].yCoor = 48.271878810178904
SN.node[125].xCoor = 228.98265412383853
SN.node[125].yCoor = 75.18505159940297
SN.node[126].xCoor = 238.94769839363306
SN.node[126].yCoor = 77.29815552065187
SN.node[127].xCoor = 215.2049704880147
SN.node[127].yCoor = 70.49974769851059
SN.node[128].xCoor = 234.04391058697632
SN.node[128].yCoor = 44.108028365951895
SN.node[129].xCoor = 207.48518145932846
SN.node[129].yCoor = 58.70881981953643
SN.node[130].xCoor = 277.6614363751827
SN.node[130].yCoor = 68.00303572901932
SN.node[131].xCoor = 247.92518158093486
SN.node[131].yCoor = 61.24024342937002
SN.node[132].xCoor = 276.6363637437536
SN.node[132].yCoor = 58.818045089166674
SN.node[133].xCoor = 270.43612861717935
SN.node[133].yCoor = 45.081787782014345
SN.node[134].xCoor = 264.3180381701295
SN.node[134].yCoor = 74.18957410678578
SN.node[135].xCoor = 302.46484009503655
SN.node[135].yCoor = 62.99706875135077
SN.node[136].xCoor = 307.8678831118085
SN.node[136].yCoor = 68.36223966625826
SN.node[137].xCoor = 282.6297297627682
SN.node[137].yCoor = 63.646298532233416
SN.node[138].xCoor = 280.3514266240987
SN.node[138].yCoor = 70.502160227549
SN.node[139].xCoor = 317.10767462837
SN.node[139].yCoor = 71.11388502509367
SN.node[140].xCoor = 345.59011796515495
SN.node[140].yCoor = 70.96005876863407
SN.node[141].xCoor = 323.9722065150073
SN.node[141].yCoor = 67.64277157936144
SN.node[142].xCoor = 354.20835621071643
SN.node[142].yCoor = 78.30140489864536
SN.node[143].xCoor = 343.063333194669
SN.node[143].yCoor = 67.0289997967717
SN.node[144].xCoor = 337.59616529885767
SN.node[144].yCoor = 52.29486739065436
SN.node[145].xCoor = 381.3730858580101
SN.node[145].yCoor = 73.23633853843305
SN.node[146].xCoor = 386.7851489842849
SN.node[146].yCoor = 60.71567506389715
SN.node[147].xCoor = 398.96579685010016
SN.node[147].yCoor = 76.24121895105364
SN.node[148].xCoor = 367.08406811174154
SN.node[148].yCoor = 75.36457314825287
SN.node[149].xCoor = 398.6712514253942
SN.node[149].yCoor = 65.79608714790962
SN.node[150].xCoor = 437.55906462787334
SN.node[150].yCoor = 50.28049064176484
SN.node[151].xCoor = 405.5733522593941
SN.node[151].yCoor = 58.74847483230937
SN.node[152].xCoor = 402.9270946186556
SN.node[152].yCoor = 49.19951255999553
SN.node[153].xCoor = 439.3485934759023
SN.node[153].yCoor = 55.02873600558998
SN.node[154].xCoor = 433.19184210134677
SN.node[154].yCoor = 53.022988178785724
SN.node[155].xCoor = 478.85884836416244
SN.node[155].yCoor = 74.35533860162005
SN.node[156].xCoor = 449.9992053999228
SN.node[156].yCoor = 43.435617881052465
SN.node[157].xCoor = 473.9943360323058
SN.node[157].yCoor = 71.27881544244164
SN.node[158].xCoor = 477.90708561834896
SN.node[158].yCoor = 79.78127145776787
SN.node[159].xCoor = 462.5699399602903
SN.node[159].yCoor = 49.76595979886851
SN.node[160].xCoor = 493.23699647847906
SN.node[160].yCoor = 77.32311600984048
SN.node[161].xCoor = 480.5537484951027
SN.node[161].yCoor = 76.34023743071614
SN.node[162].xCoor = 517.5581552825681
SN.node[162].yCoor = 60.73693536115185
SN.node[163].xCoor = 480.0550774788312
SN.node[163].yCoor = 74.21348395216617
SN.node[164].xCoor = 484.72448696798256
SN.node[164].yCoor = 59.188753394483626
SN.node[165].xCoor = 542.5254759601817
SN.node[165].yCoor = 58.722316568629836
SN.node[166].xCoor = 530.4451023570854
SN.node[166].yCoor = 79.45085665531835
SN.node[167].xCoor = 547.6127578805553
SN.node[167].yCoor = 43.56834475673348
SN.node[168].xCoor = 526.136913998213
SN.node[168].yCoor = 79.24521408493541
SN.node[169].xCoor = 555.2791403386786
SN.node[169].yCoor = 66.25355350005809
SN.node[170].xCoor = 574.9353340922274
SN.node[170].yCoor = 40.674217767184054
SN.node[171].xCoor = 598.8849147113717
SN.node[171].yCoor = 57.655938157610265
SN.node[172].xCoor = 560.1124123963494
SN.node[172].yCoor = 54.609771689860224
SN.node[173].xCoor = 596.9232068085246
SN.node[173].yCoor = 67.14775501609334
SN.node[174].xCoor = 587.6083752399352
SN.node[174].yCoor = 64.5613258656725
SN.node[175].xCoor = 629.3428894937047
SN.node[175].yCoor = 63.802883763782454
SN.node[176].xCoor = 608.5421388379202
SN.node[176].yCoor = 68.77242728097602
SN.node[177].xCoor = 624.8529309383379
SN.node[177].yCoor = 53.4912517186099
SN.node[178].xCoor = 625.0188583445886
SN.node[178].yCoor = 74.30000130456048
SN.node[179].xCoor = 634.7873740899881
SN.node[179].yCoor = 59.339707101946644
SN.node[180].xCoor = 664.658727673176
SN.node[180].yCoor = 73.77716640099887
SN.node[181].xCoor = 662.9947821094652
SN.node[181].yCoor = 46.3177097533238
SN.node[182].xCoor = 666.3803248554442
SN.node[182].yCoor = 72.68516458327555
SN.node[183].xCoor = 648.1077866407835
SN.node[183].yCoor = 57.353897362835646
SN.node[184].xCoor = 675.2590993539177
SN.node[184].yCoor = 44.57453260915001
SN.node[185].xCoor = 702.4615105174636
SN.node[185].yCoor = 72.44679860493103
SN.node[186].xCoor = 688.6900952186162
SN.node[186].yCoor = 52.159579455024705
SN.node[187].xCoor = 695.5414833765008
SN.node[187].yCoor = 66.43804393785427
SN.node[188].xCoor = 686.9217749055036
SN.node[188].yCoor = 78.62333702605369
SN.node[189].xCoor = 691.8771003959174
SN.node[189].yCoor = 71.47935928382645
SN.node[190].xCoor = 730.8099208127696
SN.node[190].yCoor = 69.12322634285471
SN.node[191].xCoor = 748.3157025342518
SN.node[191].yCoor = 49.39930551448576
SN.node[192].xCoor = 731.5247857582514
SN.node[192].yCoor = 64.32194132117475
SN.node[193].xCoor = 751.8645929744825
SN.node[193].yCoor = 57.6745117015364
SN.node[194].xCoor = 747.7278797591018
SN.node[194].yCoor = 45.58013504921015
SN.node[195].xCoor = 791.005818371347
SN.node[195].yCoor = 76.10951542437017
SN.node[196].xCoor = 779.9614925230974
SN.node[196].yCoor = 60.406928491966156
SN.node[197].xCoor = 795.8200497010585
SN.node[197].yCoor = 77.83774044602012
SN.node[198].xCoor = 763.0808965573528
SN.node[198].yCoor = 59.53166685584271
SN.node[199].xCoor = 798.4834983226109
SN.node[199].yCoor = 46.26154746355735
SN.node[200].xCoor = 7.374548703924502
SN.node[200].yCoor = 106.57961540282524
SN.node[201].xCoor = 21.44153974740621
SN.node[201].yCoor = 106.96837321088128
SN.node[202].xCoor = 10.46000894198146
SN.node[202].yCoor = 97.89026565101068
SN.node[203].xCoor = 0.21916290324225152
SN.node[203].yCoor = 101.27924455003239
SN.node[204].xCoor = 21.017546711736365
SN.node[204].yCoor = 81.418332789538
SN.node[205].xCoor = 66.43426462106994
SN.node[205].yCoor = 112.68384045723982
SN.node[206].xCoor = 57.852317270412286
SN.node[206].yCoor = 91.41404337747586
SN.node[207].xCoor = 48.56441083254056
SN.node[207].yCoor = 106.51200417004884
SN.node[208].xCoor = 43.740738039198696
SN.node[208].yCoor = 117.67161130097759
SN.node[209].xCoor = 70.26749235075192
SN.node[209].yCoor = 80.34048225631194
SN.node[210].xCoor = 110.19921539659185
SN.node[210].yCoor = 100.24451614549115
SN.node[211].xCoor = 109.1959286790762
SN.node[211].yCoor = 110.64316994000208
SN.node[212].xCoor = 97.27678574101805
SN.node[212].yCoor = 118.77184736905988
SN.node[213].xCoor = 88.49177444295256
SN.node[213].yCoor = 115.39930153961907
SN.node[214].xCoor = 100.6248052638738
SN.node[214].yCoor = 100.39128840212926
SN.node[215].xCoor = 153.9297971894817
SN.node[215].yCoor = 94.99098806837226
SN.node[216].xCoor = 125.19943778651839
SN.node[216].yCoor = 96.59467784921078
SN.node[217].xCoor = 133.93261086275498
SN.node[217].yCoor = 98.27166423343007
SN.node[218].xCoor = 136.64693204658448
SN.node[218].yCoor = 98.565428402833
SN.node[219].xCoor = 122.33378889841318
SN.node[219].yCoor = 90.91487987595565
SN.node[220].xCoor = 171.93222240576657
SN.node[220].yCoor = 80.23681391363955
SN.node[221].xCoor = 161.59448474174164
SN.node[221].yCoor = 90.8887136433525
SN.node[222].xCoor = 184.78553840471693
SN.node[222].yCoor = 117.87051273195482
SN.node[223].xCoor = 196.70192012109953
SN.node[223].yCoor = 87.69922595180323
SN.node[224].xCoor = 180.00981878331214
SN.node[224].yCoor = 115.20798417332063
SN.node[225].xCoor = 205.25734789773946
SN.node[225].yCoor = 106.82252810896466
SN.node[226].xCoor = 225.55201089845852
SN.node[226].yCoor = 87.16864008842138
SN.node[227].xCoor = 213.27972296155892
SN.node[227].yCoor = 92.51818524350293
SN.node[228].xCoor = 216.55728099074878
SN.node[228].yCoor = 84.2921447911995
SN.node[229].xCoor = 229.57080688071522
SN.node[229].yCoor = 101.52578400013378
SN.node[230].xCoor = 266.8119853895026
SN.node[230].yCoor = 92.91644647289674
SN.node[231].xCoor = 264.29818137911377
SN.node[231].yCoor = 95.89414655293433
SN.node[232].xCoor = 276.43818908341586
SN.node[232].yCoor = 105.86756288221645
SN.node[233].xCoor = 263.50186075163344
SN.node[233].yCoor = 100.80457957470807
SN.node[234].xCoor = 267.8316557244109
SN.node[234].yCoor = 115.05760044742624
SN.node[235].xCoor = 313.619890598234
SN.node[235].yCoor = 113.49485806498743
SN.node[236].xCoor = 305.8129841823917
SN.node[236].yCoor = 114.78510938846581
SN.node[237].xCoor = 310.2745459007351
SN.node[237].yCoor = 118.8622373700312
SN.node[238].xCoor = 307.3918745345384
SN.node[238].yCoor = 84.06471183795
SN.node[239].xCoor = 297.0774078146627
SN.node[239].yCoor = 104.60659401326512
SN.node[240].xCoor = 355.4259291602357
SN.node[240].yCoor = 105.34418774549908
SN.node[241].xCoor = 348.0178633322802
SN.node[241].yCoor = 106.23008034810434
SN.node[242].xCoor = 347.6738916615567
SN.node[242].yCoor = 97.67364786600149
SN.node[243].xCoor = 352.0529833184265
SN.node[243].yCoor = 91.76447361132153
SN.node[244].xCoor = 321.5479615094222
SN.node[244].yCoor = 110.01663671968241
SN.node[245].xCoor = 394.08322019861066
SN.node[245].yCoor = 115.68583531002908
SN.node[246].xCoor = 391.9514383083025
SN.node[246].yCoor = 117.45969763856138
SN.node[247].xCoor = 396.21018997259586
SN.node[247].yCoor = 85.6519643574284
SN.node[248].xCoor = 368.7728815460975
SN.node[248].yCoor = 110.81191452371169
SN.node[249].xCoor = 370.6673465113195
SN.node[249].yCoor = 102.7641197259338
SN.node[250].xCoor = 400.2732333770144
SN.node[250].yCoor = 114.26892563366194
SN.node[251].xCoor = 436.88556241872965
SN.node[251].yCoor = 80.09713619587038
SN.node[252].xCoor = 413.5419785311317
SN.node[252].yCoor = 93.16811087345197
SN.node[253].xCoor = 431.04771884938737
SN.node[253].yCoor = 95.13252994299216
SN.node[254].xCoor = 430.89951106054946
SN.node[254].yCoor = 113.37840828637914
SN.node[255].xCoor = 469.5085415310825
SN.node[255].yCoor = 107.57303133619058
SN.node[256].xCoor = 457.4099804333621
SN.node[256].yCoor = 106.04668113765857
SN.node[257].xCoor = 465.7409092533393
SN.node[257].yCoor = 99.96261368924337
SN.node[258].xCoor = 449.9891405799063
SN.node[258].yCoor = 103.28677014414778
SN.node[259].xCoor = 479.7197015400566
SN.node[259].yCoor = 98.1063506652358
SN.node[260].xCoor = 510.09604845505794
SN.node[260].yCoor = 93.79929986136095
SN.node[261].xCoor = 507.46501405494047
SN.node[261].yCoor = 106.24452487706164
SN.node[262].xCoor = 513.1599157537573
SN.node[262].yCoor = 85.83630065927639
SN.node[263].xCoor = 482.2651206743208
SN.node[263].yCoor = 117.96449641901575
SN.node[264].xCoor = 499.25674216407435
SN.node[264].yCoor = 112.59837051769503
SN.node[265].xCoor = 521.6428181566508
SN.node[265].yCoor = 105.53490468701027
SN.node[266].xCoor = 521.5300193433804
SN.node[266].yCoor = 109.55277776054595
SN.node[267].xCoor = 525.3638098032703
SN.node[267].yCoor = 92.52242736927411
SN.node[268].xCoor = 532.5912815866443
SN.node[268].yCoor = 83.96514960116907
SN.node[269].xCoor = 531.1854242694178
SN.node[269].yCoor = 110.95969846451808
SN.node[270].xCoor = 571.7338505085477
SN.node[270].yCoor = 100.19133099157628
SN.node[271].xCoor = 564.2208726065953
SN.node[271].yCoor = 100.5956216428412
SN.node[272].xCoor = 592.9039505912264
SN.node[272].yCoor = 97.49310914864185
SN.node[273].xCoor = 566.483781657036
SN.node[273].yCoor = 100.61381909189063
SN.node[274].xCoor = 574.4702333802253
SN.node[274].yCoor = 84.11222791543852
SN.node[275].xCoor = 601.5441198915283
SN.node[275].yCoor = 93.76745916340344
SN.node[276].xCoor = 607.8981966480154
SN.node[276].yCoor = 118.78659303640941
SN.node[277].xCoor = 615.4785494216467
SN.node[277].yCoor = 81.01404730472277
SN.node[278].xCoor = 630.3513486288906
SN.node[278].yCoor = 114.4655206955247
SN.node[279].xCoor = 636.09607389584
SN.node[279].yCoor = 109.32820825983725
SN.node[280].xCoor = 670.5321785864553
SN.node[280].yCoor = 119.93497387113393
SN.node[281].xCoor = 647.8603794826372
SN.node[281].yCoor = 90.90430770213518
SN.node[282].xCoor = 658.3710366102898
SN.node[282].yCoor = 101.47495573183704
SN.node[283].xCoor = 646.2948658925475
SN.node[283].yCoor = 92.35848750737398
SN.node[284].xCoor = 659.0474095578038
SN.node[284].yCoor = 110.58146647411019
SN.node[285].xCoor = 691.2277650939018
SN.node[285].yCoor = 113.78346711072683
SN.node[286].xCoor = 685.7401160827015
SN.node[286].yCoor = 89.92852768470881
SN.node[287].xCoor = 685.6497834055382
SN.node[287].yCoor = 84.06871457934776
SN.node[288].xCoor = 684.6340902677196
SN.node[288].yCoor = 112.23139269362187
SN.node[289].xCoor = 685.4392405835492
SN.node[289].yCoor = 109.07015959999683
SN.node[290].xCoor = 732.5550257301867
SN.node[290].yCoor = 93.88334644024488
SN.node[291].xCoor = 755.0294863415115
SN.node[291].yCoor = 100.8123827084238
SN.node[292].xCoor = 721.5896779578976
SN.node[292].yCoor = 106.23537007837413
SN.node[293].xCoor = 734.6518004193238
SN.node[293].yCoor = 88.99257899744386
SN.node[294].xCoor = 742.8301610826765
SN.node[294].yCoor = 82.40033511078819
SN.node[295].xCoor = 770.0324570372022
SN.node[295].yCoor = 114.40512097345487
SN.node[296].xCoor = 770.7016069162324
SN.node[296].yCoor = 90.25533978585743
SN.node[297].xCoor = 796.2804511390318
SN.node[297].yCoor = 92.88986802468109
SN.node[298].xCoor = 774.1198583534331
SN.node[298].yCoor = 109.31148681134442
SN.node[299].xCoor = 796.593670432969
SN.node[299].yCoor = 116.20858775390015
SN.node[300].xCoor = 20.252740434305736
SN.node[300].yCoor = 141.22008825204097
SN.node[301].xCoor = 15.724709621527673
SN.node[301].yCoor = 155.58668156611054
SN.node[302].xCoor = 21.085629539395008
SN.node[302].yCoor = 145.90663430973436
SN.node[303].xCoor = 31.277088323722637
SN.node[303].yCoor = 127.98462896735401
SN.node[304].xCoor = 35.32729891943787
SN.node[304].yCoor = 127.77195322274818
SN.node[305].xCoor = 57.69505438690133
SN.node[305].yCoor = 126.44267606705709
SN.node[306].xCoor = 79.8097343736006
SN.node[306].yCoor = 127.41876428301077
SN.node[307].xCoor = 72.83557580511234
SN.node[307].yCoor = 154.0656912530727
SN.node[308].xCoor = 78.0737927000151
SN.node[308].yCoor = 140.06200142293554
SN.node[309].xCoor = 61.82825573148179
SN.node[309].yCoor = 130.06107098147882
SN.node[310].xCoor = 113.69194896372919
SN.node[310].yCoor = 132.97823288537145
SN.node[311].xCoor = 103.45065531442592
SN.node[311].yCoor = 156.17358263355163
SN.node[312].xCoor = 82.1605168122141
SN.node[312].yCoor = 148.91520310745472
SN.node[313].xCoor = 87.20151658136182
SN.node[313].yCoor = 126.17710665457868
SN.node[314].xCoor = 99.27395574120587
SN.node[314].yCoor = 150.7827409594331
SN.node[315].xCoor = 122.47903678632781
SN.node[315].yCoor = 150.05732264439175
SN.node[316].xCoor = 157.24053511592484
SN.node[316].yCoor = 148.47547289298652
SN.node[317].xCoor = 137.5064739111947
SN.node[317].yCoor = 132.11673871090946
SN.node[318].xCoor = 132.87709910027735
SN.node[318].yCoor = 154.9191182342654
SN.node[319].xCoor = 157.52525028755355
SN.node[319].yCoor = 145.47230270895977
SN.node[320].xCoor = 172.77110400449777
SN.node[320].yCoor = 128.58125490577842
SN.node[321].xCoor = 182.47435523500997
SN.node[321].yCoor = 125.0063472288604
SN.node[322].xCoor = 187.63520290760917
SN.node[322].yCoor = 147.67453367323287
SN.node[323].xCoor = 162.65865956285435
SN.node[323].yCoor = 153.09969169960235
SN.node[324].xCoor = 168.80693657050116
SN.node[324].yCoor = 149.2940549463681
SN.node[325].xCoor = 213.37872119936603
SN.node[325].yCoor = 137.91745859239504
SN.node[326].xCoor = 205.69886143872162
SN.node[326].yCoor = 132.97593531664026
SN.node[327].xCoor = 216.47394995584688
SN.node[327].yCoor = 144.8212243361114
SN.node[328].xCoor = 218.87958594816337
SN.node[328].yCoor = 139.7127740758722
SN.node[329].xCoor = 223.11840273161138
SN.node[329].yCoor = 159.99151678161596
SN.node[330].xCoor = 252.54225313822346
SN.node[330].yCoor = 143.2546150995632
SN.node[331].xCoor = 247.7445373295999
SN.node[331].yCoor = 125.9617546981634
SN.node[332].xCoor = 261.0547807752568
SN.node[332].yCoor = 127.99372823838223
SN.node[333].xCoor = 270.98216610925175
SN.node[333].yCoor = 137.80197202135184
SN.node[334].xCoor = 277.94406278373276
SN.node[334].yCoor = 142.4688805544036
SN.node[335].xCoor = 299.26414908400943
SN.node[335].yCoor = 129.31267113737087
SN.node[336].xCoor = 285.9446101773724
SN.node[336].yCoor = 121.13030736437457
SN.node[337].xCoor = 301.22795760113803
SN.node[337].yCoor = 125.27329141786994
SN.node[338].xCoor = 296.7905183085801
SN.node[338].yCoor = 130.24375042034245
SN.node[339].xCoor = 294.29015356671977
SN.node[339].yCoor = 157.53357360627908
SN.node[340].xCoor = 334.8528018279317
SN.node[340].yCoor = 144.50689285193562
SN.node[341].xCoor = 355.81043482060755
SN.node[341].yCoor = 143.40909230890617
SN.node[342].xCoor = 333.4727364974537
SN.node[342].yCoor = 139.56652716468744
SN.node[343].xCoor = 358.165855601386
SN.node[343].yCoor = 146.15063515425237
SN.node[344].xCoor = 325.93036861433296
SN.node[344].yCoor = 154.26638419970374
SN.node[345].xCoor = 378.397079811719
SN.node[345].yCoor = 132.8451313022352
SN.node[346].xCoor = 391.61001299870503
SN.node[346].yCoor = 124.23698841266274
SN.node[347].xCoor = 363.9003832295952
SN.node[347].yCoor = 149.4151006546171
SN.node[348].xCoor = 360.56663822004083
SN.node[348].yCoor = 127.17001488015543
SN.node[349].xCoor = 396.7776620651315
SN.node[349].yCoor = 120.36315778943035
SN.node[350].xCoor = 423.50308653281866
SN.node[350].yCoor = 146.97970441491702
SN.node[351].xCoor = 404.08239852916114
SN.node[351].yCoor = 158.85334734384895
SN.node[352].xCoor = 435.8425950226792
SN.node[352].yCoor = 135.4469122269954
SN.node[353].xCoor = 403.3641978131414
SN.node[353].yCoor = 144.9476236954062
SN.node[354].xCoor = 405.9884267945029
SN.node[354].yCoor = 143.66810832791958
SN.node[355].xCoor = 454.4928743302125
SN.node[355].yCoor = 123.53632615213579
SN.node[356].xCoor = 443.72013722831673
SN.node[356].yCoor = 141.11008869122077
SN.node[357].xCoor = 463.4886590458351
SN.node[357].yCoor = 133.32823627803003
SN.node[358].xCoor = 469.51497855241377
SN.node[358].yCoor = 144.16762195854264
SN.node[359].xCoor = 476.68751733460783