[General]

# ==========================================================
# Always include the main Castalia.ini file
# ==========================================================

include ../Parameters/Castalia.ini

sim-time-limit = 15s

#include wsn_experiment.ini

SN.wirelessChannel.onlyStaticNodes = true
SN.wirelessChannel.sigma = 0
SN.wirelessChannel.bidirectionalSigma = 0
# Choose a radio and set the Tx power to a low value so
# that node's mobility has a better effect on connectivity
SN.node[*].Communication.Radio.RadioParametersFile = "../Parameters/Radio/CC2420.txt"
SN.node[*].Communication.Radio.TxOutputPower = "-5dBm"
SN.wirelessChannel.pathLossExponent = 2.4
SN.wirelessChannel.PLd0 = 51.55056 # 40m -> PLd0 = (-5dBm - max(-95dBm, -100dBm)) - 10 * pathLossExponent * log(40m)
SN.node[*].Communication.Radio.mode = "IDEAL"
SN.node[*].Communication.Radio.collisionModel = 0

#SN.node[*].Communication.MACProtocolName = "TunableMAC"
#SN.node[*].Communication.MAC.dutyCycle = 1.0
#SN.node[*].Communication.MAC.randomTxOffset = 0
#SN.node[*].Communication.MAC.backoffType = 2

#SN.node[*].Communication.RoutingProtocolName = "GreedyRouting"
# be carefull, turning debig info on may generate a lot of trace data
SN.node[*].Communication.Routing.collectTraceInfo = true

SN.node[*].ApplicationName = "SimplePairApplication"
SN.node[*].Application.collectTraceInfo = false

#SN.node[0].Application.packet_rate = 0.2
#SN.node[0].Application.maxData = 100
#SN.node[0].Application.startupDelay = 10
#SN.node[0].Application.nextRecipient = "2"


SN.node[*].Communication.RoutingProtocolName = "StableRouting"
SN.node[*].Communication.MACProtocolName = "TunableMAC"
SN.node[*].Communication.MAC.dutyCycle = 1.0
SN.node[*].Communication.MAC.randomTxOffset = 0
SN.node[*].Communication.MAC.backoffType = 2
SN.numNodes = 1662
SN.field_x = 800
SN.field_y = 800
SN.node[0].xCoor = 24.08794104934462
SN.node[0].yCoor = 7.344831016616338
SN.node[1].xCoor = 0.18180698281551777
SN.node[1].yCoor = 17.912914028942033
SN.node[2].xCoor = 1.7158195879939964
SN.node[2].yCoor = 22.777380991329768
SN.node[3].xCoor = 38.871967934374126
SN.node[3].yCoor = 5.666071237546522
SN.node[4].xCoor = 10.649137984982966
SN.node[4].yCoor = 32.73259132906537
SN.node[5].xCoor = 53.71635818645382
SN.node[5].yCoor = 1.5048767198535717
SN.node[6].xCoor = 46.43850176537717
SN.node[6].yCoor = 36.14279644553447
SN.node[7].xCoor = 57.56067409191357
SN.node[7].yCoor = 31.897734374468865
SN.node[8].xCoor = 69.09135958822296
SN.node[8].yCoor = 23.070767671635988
SN.node[9].xCoor = 49.7824446689458
SN.node[9].yCoor = 6.8567348638154435
SN.node[10].xCoor = 96.68468242299518
SN.node[10].yCoor = 15.173178197969417
SN.node[11].xCoor = 85.63699750635247
SN.node[11].yCoor = 35.536199207255606
SN.node[12].xCoor = 113.83512569866467
SN.node[12].yCoor = 6.827030641201075
SN.node[13].xCoor = 96.5925647592833
SN.node[13].yCoor = 9.318094181136587
SN.node[14].xCoor = 88.29692435373025
SN.node[14].yCoor = 29.98484970641501
SN.node[15].xCoor = 159.91048110427056
SN.node[15].yCoor = 34.8908966017412
SN.node[16].xCoor = 123.24901610132366
SN.node[16].yCoor = 28.95103209269039
SN.node[17].xCoor = 148.77608329228343
SN.node[17].yCoor = 3.672275911612237
SN.node[18].xCoor = 129.7101122457434
SN.node[18].yCoor = 23.276636929469625
SN.node[19].xCoor = 126.95061065927517
SN.node[19].yCoor = 10.884197631316725
SN.node[20].xCoor = 177.63310236896257
SN.node[20].yCoor = 30.06946328331061
SN.node[21].xCoor = 165.1945193885577
SN.node[21].yCoor = 5.527769263560263
SN.node[22].xCoor = 165.14493995673456
SN.node[22].yCoor = 10.163821006043188
SN.node[23].xCoor = 176.78136927943953
SN.node[23].yCoor = 7.674880663322279
SN.node[24].xCoor = 189.95688503148972
SN.node[24].yCoor = 35.44360486544715
SN.node[25].xCoor = 238.32174039983943
SN.node[25].yCoor = 35.043927753846695
SN.node[26].xCoor = 221.73081685792715
SN.node[26].yCoor = 19.908962458516726
SN.node[27].xCoor = 237.93002119781954
SN.node[27].yCoor = 18.07608124783392
SN.node[28].xCoor = 207.72018045430033
SN.node[28].yCoor = 11.639263407627674
SN.node[29].xCoor = 210.50030841640344
SN.node[29].yCoor = 23.856660493218975
SN.node[30].xCoor = 268.0488457199733
SN.node[30].yCoor = 12.046713504204094
SN.node[31].xCoor = 240.5198075030359
SN.node[31].yCoor = 24.488315986645564
SN.node[32].xCoor = 256.0203157225686
SN.node[32].yCoor = 38.82285024992817
SN.node[33].xCoor = 264.01943223458284
SN.node[33].yCoor = 36.57756227542593
SN.node[34].xCoor = 243.01934606727042
SN.node[34].yCoor = 6.46781436720917
SN.node[35].xCoor = 312.32570012661193
SN.node[35].yCoor = 17.95241756861966
SN.node[36].xCoor = 299.64807933561474
SN.node[36].yCoor = 33.63091571419705
SN.node[37].xCoor = 317.7134780174841
SN.node[37].yCoor = 36.73542042700436
SN.node[38].xCoor = 293.963702270656
SN.node[38].yCoor = 29.00246101563072
SN.node[39].xCoor = 293.24932605907145
SN.node[39].yCoor = 2.5892092326288285
SN.node[40].xCoor = 336.41712774076103
SN.node[40].yCoor = 34.09959080015333
SN.node[41].xCoor = 339.64097109557264
SN.node[41].yCoor = 2.3943738210313192
SN.node[42].xCoor = 352.1032608223916
SN.node[42].yCoor = 18.336070607175337
SN.node[43].xCoor = 340.439697160753
SN.node[43].yCoor = 22.70869979432698
SN.node[44].xCoor = 344.53315410951143
SN.node[44].yCoor = 1.3086080406734002
SN.node[45].xCoor = 366.49382472063587
SN.node[45].yCoor = 25.656584945145255
SN.node[46].xCoor = 360.60012244911974
SN.node[46].yCoor = 12.963390203050302
SN.node[47].xCoor = 371.3352297852975
SN.node[47].yCoor = 0.779792419959815
SN.node[48].xCoor = 382.76031567056043
SN.node[48].yCoor = 28.56099222476943
SN.node[49].xCoor = 371.8759317496791
SN.node[49].yCoor = 14.741149404852987
SN.node[50].xCoor = 426.28890829743654
SN.node[50].yCoor = 21.594382524306226
SN.node[51].xCoor = 420.81511070989404
SN.node[51].yCoor = 24.617358814102836
SN.node[52].xCoor = 411.76493313628765
SN.node[52].yCoor = 32.17764193543342
SN.node[53].xCoor = 415.2373259887726
SN.node[53].yCoor = 4.976321140220357
SN.node[54].xCoor = 430.8048639524036
SN.node[54].yCoor = 28.715672822270236
SN.node[55].xCoor = 479.7682736373119
SN.node[55].yCoor = 12.964191222390689
SN.node[56].xCoor = 457.7974564648445
SN.node[56].yCoor = 25.389387744589893
SN.node[57].xCoor = 460.2914211586534
SN.node[57].yCoor = 11.500823790634431
SN.node[58].xCoor = 452.28985539207235
SN.node[58].yCoor = 2.939246063407479
SN.node[59].xCoor = 459.8698748022435
SN.node[59].yCoor = 34.60091857786743
SN.node[60].xCoor = 501.2503353628415
SN.node[60].yCoor = 14.052234029306714
SN.node[61].xCoor = 497.7508721855943
SN.node[61].yCoor = 19.004734149110458
SN.node[62].xCoor = 485.9360641749113
SN.node[62].yCoor = 28.009631872639183
SN.node[63].xCoor = 508.19294350085386
SN.node[63].yCoor = 19.597279982223277
SN.node[64].xCoor = 484.19683303801907
SN.node[64].yCoor = 3.874742905676296
SN.node[65].xCoor = 554.680198979964
SN.node[65].yCoor = 18.903628837918482
SN.node[66].xCoor = 536.4923963040754
SN.node[66].yCoor = 4.200434332215259
SN.node[67].xCoor = 539.1509766662551
SN.node[67].yCoor = 36.9963189651139
SN.node[68].xCoor = 547.1484697913146
SN.node[68].yCoor = 27.791223087602653
SN.node[69].xCoor = 549.9333035005975
SN.node[69].yCoor = 28.08934136604874
SN.node[70].xCoor = 569.9149241383293
SN.node[70].yCoor = 26.695460783223027
SN.node[71].xCoor = 568.0270382263858
SN.node[71].yCoor = 39.80569937223394
SN.node[72].xCoor = 597.3731178239378
SN.node[72].yCoor = 35.47194454472595
SN.node[73].xCoor = 597.5543835275904
SN.node[73].yCoor = 0.5782851618105145
SN.node[74].xCoor = 599.2710307893585
SN.node[74].yCoor = 25.735009619580815
SN.node[75].xCoor = 620.1262532740301
SN.node[75].yCoor = 30.045290593476448
SN.node[76].xCoor = 614.3971151182733
SN.node[76].yCoor = 12.645466813717015
SN.node[77].xCoor = 612.6165874409287
SN.node[77].yCoor = 32.692474467778325
SN.node[78].xCoor = 625.4158181714987
SN.node[78].yCoor = 24.04530399508534
SN.node[79].xCoor = 639.9389602334953
SN.node[79].yCoor = 10.353012860859048
SN.node[80].xCoor = 661.3655435735665
SN.node[80].yCoor = 24.640868270044678
SN.node[81].xCoor = 658.8291473296734
SN.node[81].yCoor = 24.169312800337266
SN.node[82].xCoor = 652.9480704359594
SN.node[82].yCoor = 10.814881611885072
SN.node[83].xCoor = 673.8457342104234
SN.node[83].yCoor = 25.701225656217943
SN.node[84].xCoor = 655.2065400910783
SN.node[84].yCoor = 37.58897560213538
SN.node[85].xCoor = 688.4770778533358
SN.node[85].yCoor = 39.27515841088112
SN.node[86].xCoor = 680.6699930607741
SN.node[86].yCoor = 3.188500630060389
SN.node[87].xCoor = 686.3531739050758
SN.node[87].yCoor = 11.166223090564253
SN.node[88].xCoor = 680.9174897546199
SN.node[88].yCoor = 1.8659291550457269
SN.node[89].xCoor = 716.7405897751923
SN.node[89].yCoor = 25.69440966112331
SN.node[90].xCoor = 740.7099281211786
SN.node[90].yCoor = 33.583712609031345
SN.node[91].xCoor = 743.2441531696196
SN.node[91].yCoor = 12.493179589300913
SN.node[92].xCoor = 740.9204949120677
SN.node[92].yCoor = 6.825652204413295
SN.node[93].xCoor = 723.4289846013319
SN.node[93].yCoor = 33.47991015504359
SN.node[94].xCoor = 728.6330961838863
SN.node[94].yCoor = 25.941181957122986
SN.node[95].xCoor = 762.6123791889518
SN.node[95].yCoor = 2.8648541396912375
SN.node[96].xCoor = 777.7354414973904
SN.node[96].yCoor = 6.596027392532209
SN.node[97].xCoor = 775.9913803306817
SN.node[97].yCoor = 0.43561557238679605
SN.node[98].xCoor = 798.8264973444523
SN.node[98].yCoor = 1.4122632011436398
SN.node[99].xCoor = 761.2908082036013
SN.node[99].yCoor = 13.47135893472137
SN.node[100].xCoor = 24.33777721392743
SN.node[100].yCoor = 42.00525622154045
SN.node[101].xCoor = 12.459497938574273
SN.node[101].yCoor = 61.42184412167546
SN.node[102].xCoor = 5.8029898768981525
SN.node[102].yCoor = 60.00755728077188
SN.node[103].xCoor = 16.8227765176837
SN.node[103].yCoor = 68.9771852003437
SN.node[104].xCoor = 23.55114591255992
SN.node[104].yCoor = 68.1141869298421
SN.node[105].xCoor = 40.57273817129228
SN.node[105].yCoor = 73.27463399930589
SN.node[106].xCoor = 52.100741842315976
SN.node[106].yCoor = 40.78881776346474
SN.node[107].xCoor = 53.58292877534148
SN.node[107].yCoor = 44.304036601393406
SN.node[108].xCoor = 46.764972349185065
SN.node[108].yCoor = 62.57593863067348
SN.node[109].xCoor = 46.68684592662605
SN.node[109].yCoor = 65.20761558732754
SN.node[110].xCoor = 86.93535461026093
SN.node[110].yCoor = 54.25871289025476
SN.node[111].xCoor = 114.48832659447721
SN.node[111].yCoor = 68.83176214972153
SN.node[112].xCoor = 98.29778117354942
SN.node[112].yCoor = 72.1662417244937
SN.node[113].xCoor = 92.44338500177123
SN.node[113].yCoor = 79.16064998364163
SN.node[114].xCoor = 115.60283555088861
SN.node[114].yCoor = 57.63221029112763
SN.node[115].xCoor = 142.35259578382008
SN.node[115].yCoor = 77.69702508124467
SN.node[116].xCoor = 148.935740957823
SN.node[116].yCoor = 78.90650886490846
SN.node[117].xCoor = 158.12941684824838
SN.node[117].yCoor = 57.956369316798
SN.node[118].xCoor = 153.74478756174312
SN.node[118].yCoor = 55.56427949587351
SN.node[119].xCoor = 147.0885044519904
SN.node[119].yCoor = 58.654174504141274
SN.node[120].xCoor = 167.42969340503217
SN.node[120].yCoor = 72.53664800023765
SN.node[121].xCoor = 183.99328247935057
SN.node[121].yCoor = 48.25048131116209
SN.node[122].xCoor = 184.6204901889302
SN.node[122].yCoor = 69.07324157133792
SN.node[123].xCoor = 199.38897671535156
SN.node[123].yCoor = 79.29053180180424
SN.node[124].xCoor = 196.31412455489453
SN.node[124].yCoor = 55.910035729097565
SN.node[125].xCoor = 214.32652416412165
SN.node[125].yCoor = 77.89873597687807
SN.node[126].xCoor = 231.41378305046368
SN.node[126].yCoor = 62.1101223039874
SN.node[127].xCoor = 217.94992177810323
SN.node[127].yCoor = 69.45236351149413
SN.node[128].xCoor = 232.26732013884356
SN.node[128].yCoor = 49.69757743620203
SN.node[129].xCoor = 231.06361056972463
SN.node[129].yCoor = 77.35744536788573
SN.node[130].xCoor = 275.3219639063389
SN.node[130].yCoor = 42.90062977295278
SN.node[131].xCoor = 272.41329983813614
SN.node[131].yCoor = 50.22400641195398
SN.node[132].xCoor = 258.13233382121285
SN.node[132].yCoor = 51.55600586072937
SN.node[133].xCoor = 258.1279939670853
SN.node[133].yCoor = 50.93891082871352
SN.node[134].xCoor = 271.768741528603
SN.node[134].yCoor = 66.6988933005865
SN.node[135].xCoor = 301.9195732673989
SN.node[135].yCoor = 45.36615723001421
SN.node[136].xCoor = 294.98757088597597
SN.node[136].yCoor = 52.114492327204886
SN.node[137].xCoor = 282.84814425688944
SN.node[137].yCoor = 49.41398826382851
SN.node[138].xCoor = 297.87521853281146
SN.node[138].yCoor = 76.51349149902268
SN.node[139].xCoor = 317.7802966667957
SN.node[139].yCoor = 49.940194131844166
SN.node[140].xCoor = 324.1062270738153
SN.node[140].yCoor = 40.05946237856456
SN.node[141].xCoor = 333.686454612568
SN.node[141].yCoor = 73.28475226236668
SN.node[142].xCoor = 353.9124448162229
SN.node[142].yCoor = 72.92009688327803
SN.node[143].xCoor = 331.50126551287224
SN.node[143].yCoor = 60.56938081719868
SN.node[144].xCoor = 328.82302758009877
SN.node[144].yCoor = 79.91924911368037
SN.node[145].xCoor = 398.50788021287457
SN.node[145].yCoor = 67.74496229992806
SN.node[146].xCoor = 385.49133643971686
SN.node[146].yCoor = 60.81475826232933
SN.node[147].xCoor = 371.59697811687874
SN.node[147].yCoor = 72.56257965967616
SN.node[148].xCoor = 361.58258672524005
SN.node[148].yCoor = 53.234004344357444
SN.node[149].xCoor = 395.8754711159475
SN.node[149].yCoor = 77.00089742538043
SN.node[150].xCoor = 403.59607134713383
SN.node[150].yCoor = 43.88228383069939
SN.node[151].xCoor = 421.56447655871244
SN.node[151].yCoor = 71.05293177554631
SN.node[152].xCoor = 422.56719741312077
SN.node[152].yCoor = 64.70399089890468
SN.node[153].xCoor = 420.6002069905649
SN.node[153].yCoor = 52.365451328334956
SN.node[154].xCoor = 415.5571763045996
SN.node[154].yCoor = 69.35372150184355
SN.node[155].xCoor = 471.49123450302
SN.node[155].yCoor = 47.87417991784242
SN.node[156].xCoor = 461.78157531897887
SN.node[156].yCoor = 50.49745058851889
SN.node[157].xCoor = 471.71761440928304
SN.node[157].yCoor = 78.79698015977421
SN.node[158].xCoor = 453.7376156612078
SN.node[158].yCoor = 64.43428871177503
SN.node[159].xCoor = 445.21045636355007
SN.node[159].yCoor = 44.00111991817529
SN.node[160].xCoor = 511.03002401818514
SN.node[160].yCoor = 79.18179755917575
SN.node[161].xCoor = 492.0100633404641
SN.node[161].yCoor = 51.613120895040026
SN.node[162].xCoor = 508.83719543695236
SN.node[162].yCoor = 72.37243462517202
SN.node[163].xCoor = 483.6610889442959
SN.node[163].yCoor = 69.64967000599803
SN.node[164].xCoor = 514.6957554133355
SN.node[164].yCoor = 53.764033580272674
SN.node[165].xCoor = 550.9626940452916
SN.node[165].yCoor = 68.90494961037044
SN.node[166].xCoor = 550.679134398133
SN.node[166].yCoor = 79.2739297568954
SN.node[167].xCoor = 551.6396638347566
SN.node[167].yCoor = 65.53578297412655
SN.node[168].xCoor = 532.3636891482919
SN.node[168].yCoor = 71.68123656411422
SN.node[169].xCoor = 528.6670227021704
SN.node[169].yCoor = 78.25899847968473
SN.node[170].xCoor = 595.4896072477501
SN.node[170].yCoor = 62.839983052525604
SN.node[171].xCoor = 563.3607524394047
SN.node[171].yCoor = 68.60379079541896
SN.node[172].xCoor = 588.5647717070599
SN.node[172].yCoor = 72.88552551436337
SN.node[173].xCoor = 570.6637107954116
SN.node[173].yCoor = 52.45619230429717
SN.node[174].xCoor = 564.0918353270421
SN.node[174].yCoor = 41.50461560464165
SN.node[175].xCoor = 635.2459720397214
SN.node[175].yCoor = 77.82331537252063
SN.node[176].xCoor = 603.5234213007263
SN.node[176].yCoor = 62.80709010743856
SN.node[177].xCoor = 606.2761669178938
SN.node[177].yCoor = 55.31498141734632
SN.node[178].xCoor = 602.6876253720135
SN.node[178].yCoor = 77.22127317483042
SN.node[179].xCoor = 639.0885824882682
SN.node[179].yCoor = 65.63088145740059
SN.node[180].xCoor = 641.7758157428017
SN.node[180].yCoor = 42.77697899914191
SN.node[181].xCoor = 678.5600380142147
SN.node[181].yCoor = 65.93528347710279
SN.node[182].xCoor = 676.8872653996151
SN.node[182].yCoor = 64.08182406814853
SN.node[183].xCoor = 655.1980194657602
SN.node[183].yCoor = 78.92950443805006
SN.node[184].xCoor = 675.4700555129341
SN.node[184].yCoor = 45.137337879089195
SN.node[185].xCoor = 680.2591281508941
SN.node[185].yCoor = 72.70456817248811
SN.node[186].xCoor = 713.2591340944499
SN.node[186].yCoor = 56.066409970532966
SN.node[187].xCoor = 684.3863949564462
SN.node[187].yCoor = 62.16911026951486
SN.node[188].xCoor = 705.7820566535645
SN.node[188].yCoor = 49.382757339863105
SN.node[189].xCoor = 709.0860409219385
SN.node[189].yCoor = 41.5794965154071
SN.node[190].xCoor = 758.2238158325126
SN.node[190].yCoor = 52.93283252290124
SN.node[191].xCoor = 734.0572213364263
SN.node[191].yCoor = 51.55524453378022
SN.node[192].xCoor = 723.0086334557728
SN.node[192].yCoor = 61.09426119989976
SN.node[193].xCoor = 745.3788169058047
SN.node[193].yCoor = 66.23942107793182
SN.node[194].xCoor = 730.1983939882032
SN.node[194].yCoor = 47.26542901911561
SN.node[195].xCoor = 786.916540749089
SN.node[195].yCoor = 65.95902068735285
SN.node[196].xCoor = 789.6993532018154
SN.node[196].yCoor = 61.37316026166141
SN.node[197].xCoor = 761.276596853112
SN.node[197].yCoor = 50.622254817441934
SN.node[198].xCoor = 771.6878530828105
SN.node[198].yCoor = 52.38510947183102
SN.node[199].xCoor = 781.134097450243
SN.node[199].yCoor = 69.04599388319028
SN.node[200].xCoor = 33.075456059214886
SN.node[200].yCoor = 92.86662631028888
SN.node[201].xCoor = 10.967798752472353
SN.node[201].yCoor = 99.96687630199004
SN.node[202].xCoor = 26.4675883150488
SN.node[202].yCoor = 96.2358512531209
SN.node[203].xCoor = 21.219967898333934
SN.node[203].yCoor = 109.47166614583689
SN.node[204].xCoor = 17.165075690560148
SN.node[204].yCoor = 104.42310907865865
SN.node[205].xCoor = 65.6097580235728
SN.node[205].yCoor = 108.4645452847684
SN.node[206].xCoor = 43.31043746230876
SN.node[206].yCoor = 96.95465845815133
SN.node[207].xCoor = 59.43320688467976
SN.node[207].yCoor = 91.39051317063466
SN.node[208].xCoor = 64.32492274334784
SN.node[208].yCoor = 96.09888024168927
SN.node[209].xCoor = 74.37157428870115
SN.node[209].yCoor = 81.67290287168896
SN.node[210].xCoor = 99.08214685967141
SN.node[210].yCoor = 86.32064950918418
SN.node[211].xCoor = 116.721781601151
SN.node[211].yCoor = 101.80136551347086
SN.node[212].xCoor = 89.70152084556774
SN.node[212].yCoor = 84.15635162967163
SN.node[213].xCoor = 93.4913087808907
SN.node[213].yCoor = 104.52671233174289
SN.node[214].xCoor = 89.07481823163525
SN.node[214].yCoor = 85.28873694336684
SN.node[215].xCoor = 140.54256152080384
SN.node[215].yCoor = 104.16687948214025
SN.node[216].xCoor = 128.17449282937653
SN.node[216].yCoor = 107.58604175362828
SN.node[217].xCoor = 159.3527435994162
SN.node[217].yCoor = 106.04485832917405
SN.node[218].xCoor = 156.49759650932245
SN.node[218].yCoor = 110.10849240832127
SN.node[219].xCoor = 148.43722167474039
SN.node[219].yCoor = 94.26779820728578
SN.node[220].xCoor = 199.975778660821
SN.node[220].yCoor = 87.25087871473652
SN.node[221].xCoor = 199.45348118278184
SN.node[221].yCoor = 108.24682659252095
SN.node[222].xCoor = 198.89012932047277
SN.node[222].yCoor = 81.21599305192659
SN.node[223].xCoor = 165.7272293230581
SN.node[223].yCoor = 98.10915414636548
SN.node[224].xCoor = 179.601899180476
SN.node[224].yCoor = 101.42904046464028
SN.node[225].xCoor = 212.24891306423777
SN.node[225].yCoor = 119.43238582625946
SN.node[226].xCoor = 225.99359015657382
SN.node[226].yCoor = 109.11149348646006
SN.node[227].xCoor = 219.64235374002658
SN.node[227].yCoor = 108.36696647904398
SN.node[228].xCoor = 226.06190890019312
SN.node[228].yCoor = 83.75369621713679
SN.node[229].xCoor = 212.73863008003065
SN.node[229].yCoor = 86.01722688418084
SN.node[230].xCoor = 257.26427725526185
SN.node[230].yCoor = 83.7203887125631
SN.node[231].xCoor = 277.791634919379
SN.node[231].yCoor = 100.28945135642444
SN.node[232].xCoor = 255.05457016958553
SN.node[232].yCoor = 85.98922952934261
SN.node[233].xCoor = 272.0638514787588
SN.node[233].yCoor = 110.70056022627018
SN.node[234].xCoor = 268.17239174006846
SN.node[234].yCoor = 96.86243765156797
SN.node[235].xCoor = 307.97449594972863
SN.node[235].yCoor = 82.60404934655367
SN.node[236].xCoor = 302.29877567969714
SN.node[236].yCoor = 85.07467564953431
SN.node[237].xCoor = 308.49092538002134
SN.node[237].yCoor = 109.34555642570487
SN.node[238].xCoor = 317.5732191952511
SN.node[238].yCoor = 101.33130942657029
SN.node[239].xCoor = 305.6714006427796
SN.node[239].yCoor = 105.7526230175787
SN.node[240].xCoor = 341.43847208190107
SN.node[240].yCoor = 108.79565319203776
SN.node[241].xCoor = 332.52872403328814
SN.node[241].yCoor = 82.90116978948934
SN.node[242].xCoor = 358.36530538184434
SN.node[242].yCoor = 82.7376779647234
SN.node[243].xCoor = 340.8678165885068
SN.node[243].yCoor = 93.67112689336938
SN.node[244].xCoor = 343.9313210457905
SN.node[244].yCoor = 91.31997119079543
SN.node[245].xCoor = 373.6455816496206
SN.node[245].yCoor = 111.62092066942265
SN.node[246].xCoor = 370.9457358373811
SN.node[246].yCoor = 116.16202392967975
SN.node[247].xCoor = 373.17891839315536
SN.node[247].yCoor = 104.75517367679583
SN.node[248].xCoor = 364.8399123013621
SN.node[248].yCoor = 114.88789482461304
SN.node[249].xCoor = 381.81341135864426
SN.node[249].yCoor = 93.36516225013008
SN.node[250].xCoor = 437.708683609223
SN.node[250].yCoor = 115.59097442818332
SN.node[251].xCoor = 417.35045671343266
SN.node[251].yCoor = 85.66148536904679
SN.node[252].xCoor = 423.0552047389935
SN.node[252].yCoor = 94.07209478633347
SN.node[253].xCoor = 439.40189115629227
SN.node[253].yCoor = 97.92779115970228
SN.node[254].xCoor = 420.21375643706216
SN.node[254].yCoor = 111.06692452541093
SN.node[255].xCoor = 441.60205235895637
SN.node[255].yCoor = 112.16699376837104
SN.node[256].xCoor = 463.543475671268
SN.node[256].yCoor = 116.33063736277288
SN.node[257].xCoor = 459.1209370749806
SN.node[257].yCoor = 89.16706718966006
SN.node[258].xCoor = 461.0977922006565
SN.node[258].yCoor = 112.2430348981118
SN.node[259].xCoor = 476.3541239103529
SN.node[259].yCoor = 107.35468121059691
SN.node[260].xCoor = 508.97134945469577
SN.node[260].yCoor = 97.26097519528267
SN.node[261].xCoor = 486.4966985174538
SN.node[261].yCoor = 92.96276854034735
SN.node[262].xCoor = 490.29287771237165
SN.node[262].yCoor = 114.59392810035331
SN.node[263].xCoor = 484.0390467174999
SN.node[263].yCoor = 97.42334752795045
SN.node[264].xCoor = 515.5092980660789
SN.node[264].yCoor = 86.1384642496384
SN.node[265].xCoor = 531.6480206802945
SN.node[265].yCoor = 80.87074808951083
SN.node[266].xCoor = 535.3300634860155
SN.node[266].yCoor = 114.12644639236436
SN.node[267].xCoor = 542.4785934350651
SN.node[267].yCoor = 95.6786426655323
SN.node[268].xCoor = 540.6380096404399
SN.node[268].yCoor = 102.48716625358561
SN.node[269].xCoor = 534.5964088695864
SN.node[269].yCoor = 119.94637179241256
SN.node[270].xCoor = 593.8095752375831
SN.node[270].yCoor = 113.12350271345198
SN.node[271].xCoor = 590.1923858452742
SN.node[271].yCoor = 118.52034560177894
SN.node[272].xCoor = 584.7425384759367
SN.node[272].yCoor = 87.18466022245624
SN.node[273].xCoor = 589.6854588712001
SN.node[273].yCoor = 115.05798915563291
SN.node[274].xCoor = 594.7461450293515
SN.node[274].yCoor = 98.94222993032474
SN.node[275].xCoor = 617.5327407494368
SN.node[275].yCoor = 85.29034589169606
SN.node[276].xCoor = 638.135489268878
SN.node[276].yCoor = 90.44600700219277
SN.node[277].xCoor = 633.1664537337467
SN.node[277].yCoor = 81.86875525677601
SN.node[278].xCoor = 619.8802977302782
SN.node[278].yCoor = 90.51751235802425
SN.node[279].xCoor = 623.5999694036656
SN.node[279].yCoor = 100.82564450608655
SN.node[280].xCoor = 649.8723819614538
SN.node[280].yCoor = 90.94933735795212
SN.node[281].xCoor = 677.156470297301
SN.node[281].yCoor = 97.47198946891262
SN.node[282].xCoor = 651.0422550854606
SN.node[282].yCoor = 91.5697577193163
SN.node[283].xCoor = 652.9409608077333
SN.node[283].yCoor = 95.31691326114752
SN.node[284].xCoor = 671.6518855599076
SN.node[284].yCoor = 80.17271433799671
SN.node[285].xCoor = 703.9179212032789
SN.node[285].yCoor = 83.55004548631197
SN.node[286].xCoor = 716.3672473169561
SN.node[286].yCoor = 86.62786793808534
SN.node[287].xCoor = 680.7789760048645
SN.node[287].yCoor = 93.05920365097539
SN.node[288].xCoor = 688.6476707925591
SN.node[288].yCoor = 105.35308238620044
SN.node[289].xCoor = 694.2271558182613
SN.node[289].yCoor = 94.00774180841454
SN.node[290].xCoor = 732.803102987901
SN.node[290].yCoor = 92.1462216475882
SN.node[291].xCoor = 751.5032853883497
SN.node[291].yCoor = 118.34844804515734
SN.node[292].xCoor = 736.660517417724
SN.node[292].yCoor = 96.26888841284025
SN.node[293].xCoor = 738.2911227989892
SN.node[293].yCoor = 91.64248355743575
SN.node[294].xCoor = 736.4548853360176
SN.node[294].yCoor = 117.30077176951792
SN.node[295].xCoor = 770.3753077304833
SN.node[295].yCoor = 119.91791851566786
SN.node[296].xCoor = 788.0084658567964
SN.node[296].yCoor = 107.10271826980306
SN.node[297].xCoor = 799.4458341122316
SN.node[297].yCoor = 106.0134346909953
SN.node[298].xCoor = 778.2003865467251
SN.node[298].yCoor = 84.05442862470035
SN.node[299].xCoor = 797.8948744822246
SN.node[299].yCoor = 99.0049334317123
SN.node[300].xCoor = 30.324505519526603
SN.node[300].yCoor = 137.93433091067976
SN.node[301].xCoor = 25.134091164184902
SN.node[301].yCoor = 143.21860265741964
SN.node[302].xCoor = 32.566644577593316
SN.node[302].yCoor = 128.37688921694087
SN.node[303].xCoor = 37.786185360322094
SN.node[303].yCoor = 157.66395903155234
SN.node[304].xCoor = 32.08051292972733
SN.node[304].yCoor = 159.67714424147664
SN.node[305].xCoor = 67.54241233361272
SN.node[305].yCoor = 125.25499428633293
SN.node[306].xCoor = 52.05902997192051
SN.node[306].yCoor = 122.66466444222674
SN.node[307].xCoor = 57.37996307712223
SN.node[307].yCoor = 130.95897124203353
SN.node[308].xCoor = 43.72717973006033
SN.node[308].yCoor = 142.92804546076147
SN.node[309].xCoor = 62.62365119670407
SN.node[309].yCoor = 130.45240758604731
SN.node[310].xCoor = 95.02541208915378
SN.node[310].yCoor = 148.52348523234303
SN.node[311].xCoor = 102.45222431548228
SN.node[311].yCoor = 149.28822078638962
SN.node[312].xCoor = 89.0742585291772
SN.node[312].yCoor = 141.92278829905717
SN.node[313].xCoor = 91.69125026559358
SN.node[313].yCoor = 150.01454790846995
SN.node[314].xCoor = 102.14031657992648
SN.node[314].yCoor = 143.25010883923412
SN.node[315].xCoor = 129.3239962218331
SN.node[315].yCoor = 154.39491882740816
SN.node[316].xCoor = 135.58973892773847
SN.node[316].yCoor = 122.48087009825073
SN.node[317].xCoor = 148.2143591267237
SN.node[317].yCoor = 157.9543807569947
SN.node[318].xCoor = 144.90091615746456
SN.node[318].yCoor = 154.98571532416412
SN.node[319].xCoor = 125.82126649343277
SN.node[319].yCoor = 128.50361432590796
SN.node[320].xCoor = 197.8978353624998
SN.node[320].yCoor = 136.4073094491547
SN.node[321].xCoor = 177.26335517139344
SN.node[321].yCoor = 132.2850309362125
SN.node[322].xCoor = 163.6347253153985
SN.node[322].yCoor = 129.99915828483697
SN.node[323].xCoor = 197.36752385245694
SN.node[323].yCoor = 158.3688627058241
SN.node[324].xCoor = 195.11614236603333
SN.node[324].yCoor = 152.0614522890966
SN.node[325].xCoor = 208.41288948971
SN.node[325].yCoor = 145.44398448655514
SN.node[326].xCoor = 228.8681481744759
SN.node[326].yCoor = 127.07936264151579
SN.node[327].xCoor = 230.62478682221584
SN.node[327].yCoor = 121.18891503545534
SN.node[328].xCoor = 200.32089836652278
SN.node[328].yCoor = 125.53171569771952
SN.node[329].xCoor = 223.04929534286993
SN.node[329].yCoor = 158.85034379940595
SN.node[330].xCoor = 250.18584836902122
SN.node[330].yCoor = 145.1408893846461
SN.node[331].xCoor = 270.51464721275005
SN.node[331].yCoor = 135.39503217573028
SN.node[332].xCoor = 241.10982603634517
SN.node[332].yCoor = 136.8183626312925
SN.node[333].xCoor = 257.81869930489756
SN.node[333].yCoor = 155.3774638535188
SN.node[334].xCoor = 246.1887229123534
SN.node[334].yCoor = 121.60019291219159
SN.node[335].xCoor = 296.30357031171565
SN.node[335].yCoor = 150.16480694796152
SN.node[336].xCoor = 282.1829021630569
SN.node[336].yCoor = 122.66019224336898
SN.node[337].xCoor = 305.0722724622576
SN.node[337].yCoor = 154.44278458437026
SN.node[338].xCoor = 285.4812769815911
SN.node[338].yCoor = 149.01352247686742
SN.node[339].xCoor = 315.83878364361254
SN.node[339].yCoor = 135.35988450278967
SN.node[340].xCoor = 343.77610086673764
SN.node[340].yCoor = 136.6954915636835
SN.node[341].xCoor = 336.0506371611928
SN.node[341].yCoor = 154.05167523762742
SN.node[342].xCoor = 329.9228075668923
SN.node[342].yCoor = 126.75619970905211
SN.node[343].xCoor = 323.25319009160756
SN.node[343].yCoor = 142.48523569353378
SN.node[344].xCoor = 342.33842872893536
SN.node[344].yCoor = 137.8013392959059
SN.node[345].xCoor = 380.9164581513618
SN.node[345].yCoor = 144.17947536318994
SN.node[346].xCoor = 369.9244062126362
SN.node[346].yCoor = 143.67759727169428
SN.node[347].xCoor = 378.7217004189836
SN.node[347].yCoor = 148.807092131782
SN.node[348].xCoor = 373.7594716115541
SN.node[348].yCoor = 128.5363179039307
SN.node[349].xCoor = 362.3471656255354
SN.node[349].yCoor = 158.5701887391914
SN.node[350].xCoor = 412.9028983509656
SN.node[350].yCoor = 121.04680489677637
SN.node[351].xCoor = 414.7556653262325
SN.node[351].yCoor = 135.54700331488195
SN.node[352].xCoor = 402.3312044943805
SN.node[352].yCoor = 156.67491313360483
SN.node[353].xCoor = 408.5222404632298
SN.node[353].yCoor = 143.55742108431957
SN.node[354].xCoor = 436.48615141181233
SN.node[354].yCoor = 130.43509037718505
SN.node[355].xCoor = 457.53100110996945
SN.node[355].yCoor = 121.34787692297064
SN.node[356].xCoor = 465.23029751417516
SN.node[356].yCoor = 155.17024378368174
SN.node[357].xCoor = 442.16081955478495
SN.node[357].yCoor = 148.79036157787206
SN.node[358].xCoor = 463.36484270392896
SN.node[358].yCoor = 145.84028847906723
SN.node[359].xCoor = 458.08318082313895
SN.node[359].yCoor = 141.97621222466438
SN.node[360].xCoor = 497.1393289588126