[General]

# ==========================================================
# Always include the main Castalia.ini file
# ==========================================================

include ../Parameters/Castalia.ini

sim-time-limit = 15s

#include wsn_experiment.ini

SN.wirelessChannel.onlyStaticNodes = true
SN.wirelessChannel.sigma = 0
SN.wirelessChannel.bidirectionalSigma = 0
# Choose a radio and set the Tx power to a low value so
# that node's mobility has a better effect on connectivity
SN.node[*].Communication.Radio.RadioParametersFile = "../Parameters/Radio/CC2420.txt"
SN.node[*].Communication.Radio.TxOutputPower = "-5dBm"
SN.wirelessChannel.pathLossExponent = 2.4
SN.wirelessChannel.PLd0 = 51.55056 # 40m -> PLd0 = (-5dBm - max(-95dBm, -100dBm)) - 10 * pathLossExponent * log(40m)
SN.node[*].Communication.Radio.mode = "IDEAL"
SN.node[*].Communication.Radio.collisionModel = 0

#SN.node[*].Communication.MACProtocolName = "TunableMAC"
#SN.node[*].Communication.MAC.dutyCycle = 1.0
#SN.node[*].Communication.MAC.randomTxOffset = 0
#SN.node[*].Communication.MAC.backoffType = 2

#SN.node[*].Communication.RoutingProtocolName = "GreedyRouting"
# be carefull, turning debig info on may generate a lot of trace data
SN.node[*].Communication.Routing.collectTraceInfo = true

SN.node[*].ApplicationName = "SimplePairApplication"
SN.node[*].Application.collectTraceInfo = false

#SN.node[0].Application.packet_rate = 0.2
#SN.node[0].Application.maxData = 100
#SN.node[0].Application.startupDelay = 10
#SN.node[0].Application.nextRecipient = "2"


SN.node[*].Communication.RoutingProtocolName = "StableRouting"
SN.node[*].Communication.MACProtocolName = "TMAC"
SN.node[*].Communication.MAC.listenTimeout = 61
SN.node[*].Communication.MAC.disableTAextension = true
SN.node[*].Communication.MAC.conservativeTA = false
SN.node[*].Communication.MAC.collisionResolution = 0
SN.numNodes = 1441
SN.field_x = 800
SN.field_y = 800
SN.node[0].xCoor = 31.486807179306375
SN.node[0].yCoor = 38.66548893905859
SN.node[1].xCoor = 31.162220769343723
SN.node[1].yCoor = 16.546682701233024
SN.node[2].xCoor = 1.0134214334567826
SN.node[2].yCoor = 31.589588223754966
SN.node[3].xCoor = 23.66615161834355
SN.node[3].yCoor = 38.376597997976404
SN.node[4].xCoor = 27.06207900931225
SN.node[4].yCoor = 30.47298886793208
SN.node[5].xCoor = 63.33863966619905
SN.node[5].yCoor = 36.06737684466878
SN.node[6].xCoor = 67.95683682023761
SN.node[6].yCoor = 39.588481545842626
SN.node[7].xCoor = 55.53319895164323
SN.node[7].yCoor = 6.876257561512569
SN.node[8].xCoor = 49.883258172959145
SN.node[8].yCoor = 21.655316595889467
SN.node[9].xCoor = 43.09616630845429
SN.node[9].yCoor = 24.137619976430482
SN.node[10].xCoor = 96.44667094882907
SN.node[10].yCoor = 12.02352294421126
SN.node[11].xCoor = 103.87140123558697
SN.node[11].yCoor = 18.42363184353517
SN.node[12].xCoor = 98.9351861846252
SN.node[12].yCoor = 23.93096646182282
SN.node[13].xCoor = 80.18423977169218
SN.node[13].yCoor = 30.847476222381644
SN.node[14].xCoor = 86.83304562526536
SN.node[14].yCoor = 24.25654604728721
SN.node[15].xCoor = 141.42483312935806
SN.node[15].yCoor = 35.524458711011945
SN.node[16].xCoor = 147.24417282983126
SN.node[16].yCoor = 31.11475420882445
SN.node[17].xCoor = 150.6094373064807
SN.node[17].yCoor = 9.077969735261133
SN.node[18].xCoor = 120.06716024264387
SN.node[18].yCoor = 37.78867650374123
SN.node[19].xCoor = 141.62716707471506
SN.node[19].yCoor = 27.757831099020514
SN.node[20].xCoor = 162.65925871038672
SN.node[20].yCoor = 21.8250416860647
SN.node[21].xCoor = 173.3350961726975
SN.node[21].yCoor = 4.123617739524716
SN.node[22].xCoor = 160.105117351555
SN.node[22].yCoor = 37.83363790098864
SN.node[23].xCoor = 198.04729932741603
SN.node[23].yCoor = 0.30899520856600304
SN.node[24].xCoor = 165.3645083466132
SN.node[24].yCoor = 11.624752797229636
SN.node[25].xCoor = 216.57449606417745
SN.node[25].yCoor = 39.25916242266284
SN.node[26].xCoor = 204.01066024502637
SN.node[26].yCoor = 23.537042062998932
SN.node[27].xCoor = 200.2635407765075
SN.node[27].yCoor = 14.12479439138969
SN.node[28].xCoor = 234.57031041016026
SN.node[28].yCoor = 31.998840508209348
SN.node[29].xCoor = 218.22176686142564
SN.node[29].yCoor = 34.505046564681265
SN.node[30].xCoor = 263.15129550431794
SN.node[30].yCoor = 1.101167001738883
SN.node[31].xCoor = 257.0951761708888
SN.node[31].yCoor = 15.445609153910516
SN.node[32].xCoor = 254.563585903528
SN.node[32].yCoor = 14.14930995455519
SN.node[33].xCoor = 247.8709234970583
SN.node[33].yCoor = 10.875378523108061
SN.node[34].xCoor = 262.8016734903345
SN.node[34].yCoor = 6.547170268961837
SN.node[35].xCoor = 307.5426579044571
SN.node[35].yCoor = 5.167687497516802
SN.node[36].xCoor = 318.1105731374469
SN.node[36].yCoor = 0.5204382984721789
SN.node[37].xCoor = 286.9814866988343
SN.node[37].yCoor = 5.907073011992567
SN.node[38].xCoor = 309.876044582797
SN.node[38].yCoor = 9.118589697015551
SN.node[39].xCoor = 299.0970706485827
SN.node[39].yCoor = 20.389283855287346
SN.node[40].xCoor = 344.5540353234726
SN.node[40].yCoor = 6.964688647553725
SN.node[41].xCoor = 344.72395988399046
SN.node[41].yCoor = 24.385996302984232
SN.node[42].xCoor = 343.77266130500163
SN.node[42].yCoor = 14.505236836053701
SN.node[43].xCoor = 359.3463110159264
SN.node[43].yCoor = 4.55587155216584
SN.node[44].xCoor = 329.0373989291188
SN.node[44].yCoor = 37.01655249990679
SN.node[45].xCoor = 364.4252177912155
SN.node[45].yCoor = 18.941996955325592
SN.node[46].xCoor = 377.5704188447816
SN.node[46].yCoor = 8.601130251794382
SN.node[47].xCoor = 397.41068043934865
SN.node[47].yCoor = 16.090842225515686
SN.node[48].xCoor = 377.09530743794386
SN.node[48].yCoor = 5.124214329157413
SN.node[49].xCoor = 381.7208047404648
SN.node[49].yCoor = 27.646967205919253
SN.node[50].xCoor = 415.28646117335916
SN.node[50].yCoor = 29.560590779079945
SN.node[51].xCoor = 422.7935806714049
SN.node[51].yCoor = 9.501086985323086
SN.node[52].xCoor = 403.843567144839
SN.node[52].yCoor = 26.843623213050904
SN.node[53].xCoor = 425.09995920420727
SN.node[53].yCoor = 32.64531080156894
SN.node[54].xCoor = 409.29439689943825
SN.node[54].yCoor = 31.666811070257044
SN.node[55].xCoor = 465.10452296387257
SN.node[55].yCoor = 13.882090788238592
SN.node[56].xCoor = 466.8782136898677
SN.node[56].yCoor = 9.954489928771197
SN.node[57].xCoor = 440.79830664624626
SN.node[57].yCoor = 27.153964274833804
SN.node[58].xCoor = 447.398335780319
SN.node[58].yCoor = 15.399591102295016
SN.node[59].xCoor = 448.09321398614645
SN.node[59].yCoor = 11.284943659294457
SN.node[60].xCoor = 497.79304559270804
SN.node[60].yCoor = 18.62449790448518
SN.node[61].xCoor = 491.99089899823974
SN.node[61].yCoor = 22.976645481029784
SN.node[62].xCoor = 504.52529758368246
SN.node[62].yCoor = 26.18508638205478
SN.node[63].xCoor = 499.42339162912106
SN.node[63].yCoor = 15.292455770704194
SN.node[64].xCoor = 486.8008149075308
SN.node[64].yCoor = 27.960607803429987
SN.node[65].xCoor = 559.28933871658
SN.node[65].yCoor = 26.721923921583574
SN.node[66].xCoor = 525.6922253376474
SN.node[66].yCoor = 9.42473056698054
SN.node[67].xCoor = 541.8050263591106
SN.node[67].yCoor = 13.56489196095965
SN.node[68].xCoor = 533.2174660236328
SN.node[68].yCoor = 34.39365329525949
SN.node[69].xCoor = 537.3265401619265
SN.node[69].yCoor = 21.670588953668684
SN.node[70].xCoor = 572.8292069734499
SN.node[70].yCoor = 26.219472202416263
SN.node[71].xCoor = 574.9671030923721
SN.node[71].yCoor = 28.874964764689544
SN.node[72].xCoor = 572.180614305581
SN.node[72].yCoor = 4.128620378901857
SN.node[73].xCoor = 578.7709144159263
SN.node[73].yCoor = 29.49654388268258
SN.node[74].xCoor = 569.3138358784238
SN.node[74].yCoor = 19.11654459440821
SN.node[75].xCoor = 614.7951691996965
SN.node[75].yCoor = 18.964689584231618
SN.node[76].xCoor = 611.9068852300543
SN.node[76].yCoor = 11.771323582801623
SN.node[77].xCoor = 609.3666254145526
SN.node[77].yCoor = 17.626855337694423
SN.node[78].xCoor = 612.8418023059963
SN.node[78].yCoor = 31.109961134974597
SN.node[79].xCoor = 620.4989962063811
SN.node[79].yCoor = 5.1694900644882225
SN.node[80].xCoor = 665.9289166656049
SN.node[80].yCoor = 3.3190795621789437
SN.node[81].xCoor = 649.196149295596
SN.node[81].yCoor = 2.313408643631707
SN.node[82].xCoor = 667.0207704187667
SN.node[82].yCoor = 9.567802470290676
SN.node[83].xCoor = 654.2615541405721
SN.node[83].yCoor = 38.944428668232746
SN.node[84].xCoor = 679.7216957416695
SN.node[84].yCoor = 8.346658642295512
SN.node[85].xCoor = 680.9099017724919
SN.node[85].yCoor = 9.643748347741656
SN.node[86].xCoor = 707.0790443667833
SN.node[86].yCoor = 16.26755760236879
SN.node[87].xCoor = 687.0803239057032
SN.node[87].yCoor = 21.097754216879032
SN.node[88].xCoor = 693.080410950637
SN.node[88].yCoor = 11.062109298208682
SN.node[89].xCoor = 697.2540975441956
SN.node[89].yCoor = 24.50188419355932
SN.node[90].xCoor = 724.2746750517887
SN.node[90].yCoor = 25.60798237964977
SN.node[91].xCoor = 747.3389761346333
SN.node[91].yCoor = 32.89850158994091
SN.node[92].xCoor = 735.8254182091599
SN.node[92].yCoor = 14.968613636170547
SN.node[93].xCoor = 741.5751805173091
SN.node[93].yCoor = 21.5412216505033
SN.node[94].xCoor = 745.4234619724425
SN.node[94].yCoor = 30.544825434521083
SN.node[95].xCoor = 796.9867119047544
SN.node[95].yCoor = 17.232497763951706
SN.node[96].xCoor = 760.1961970485539
SN.node[96].yCoor = 19.190087720236313
SN.node[97].xCoor = 789.8361768301243
SN.node[97].yCoor = 25.21573133576176
SN.node[98].xCoor = 787.1528812134659
SN.node[98].yCoor = 24.00951178353975
SN.node[99].xCoor = 777.5388885391719
SN.node[99].yCoor = 19.79264834749083
SN.node[100].xCoor = 0.7318880227820035
SN.node[100].yCoor = 59.94483463849845
SN.node[101].xCoor = 14.729743481753665
SN.node[101].yCoor = 54.78807213183937
SN.node[102].xCoor = 0.7400703229204453
SN.node[102].yCoor = 75.73953983748679
SN.node[103].xCoor = 8.24910726585176
SN.node[103].yCoor = 46.87791536963395
SN.node[104].xCoor = 13.44377450202451
SN.node[104].yCoor = 76.4922701272458
SN.node[105].xCoor = 60.52582828169975
SN.node[105].yCoor = 48.49722094017309
SN.node[106].xCoor = 64.63103274704501
SN.node[106].yCoor = 56.04131696656076
SN.node[107].xCoor = 65.86377189735225
SN.node[107].yCoor = 75.40103740120719
SN.node[108].xCoor = 71.57708312613832
SN.node[108].yCoor = 79.8204571986172
SN.node[109].xCoor = 55.95888052836987
SN.node[109].yCoor = 63.34834725612908
SN.node[110].xCoor = 93.91379927510249
SN.node[110].yCoor = 47.48929691312729
SN.node[111].xCoor = 111.68260069932867
SN.node[111].yCoor = 73.45421912149821
SN.node[112].xCoor = 81.91100602102834
SN.node[112].yCoor = 58.76295207676446
SN.node[113].xCoor = 84.38596399063405
SN.node[113].yCoor = 63.23419132404755
SN.node[114].xCoor = 80.7748154595532
SN.node[114].yCoor = 45.31194840969918
SN.node[115].xCoor = 149.7074061045804
SN.node[115].yCoor = 76.05440221419678
SN.node[116].xCoor = 151.37897791045373
SN.node[116].yCoor = 58.020751874597636
SN.node[117].xCoor = 149.40911322398324
SN.node[117].yCoor = 53.427195608400446
SN.node[118].xCoor = 143.48113138845733
SN.node[118].yCoor = 45.256210017452936
SN.node[119].xCoor = 122.50119446864089
SN.node[119].yCoor = 73.92054962250563
SN.node[120].xCoor = 166.8943424158409
SN.node[120].yCoor = 47.179422483073665
SN.node[121].xCoor = 166.63220571437307
SN.node[121].yCoor = 50.061399555512914
SN.node[122].xCoor = 176.7715104900556
SN.node[122].yCoor = 69.98328482402329
SN.node[123].xCoor = 191.5927149339267
SN.node[123].yCoor = 50.71340514221163
SN.node[124].xCoor = 194.95831761341856
SN.node[124].yCoor = 44.80946773427961
SN.node[125].xCoor = 210.29548166690313
SN.node[125].yCoor = 73.9531983559256
SN.node[126].xCoor = 206.85884222389512
SN.node[126].yCoor = 50.952658349321695
SN.node[127].xCoor = 211.76774171636308
SN.node[127].yCoor = 64.2449020033556
SN.node[128].xCoor = 227.46515583923397
SN.node[128].yCoor = 50.0759296516307
SN.node[129].xCoor = 224.4700763498029
SN.node[129].yCoor = 59.94961811167509
SN.node[130].xCoor = 245.09082696949835
SN.node[130].yCoor = 78.75622001360361
SN.node[131].xCoor = 269.7617681257665
SN.node[131].yCoor = 49.377854052005986
SN.node[132].xCoor = 261.70623501833495
SN.node[132].yCoor = 63.646742218989985
SN.node[133].xCoor = 245.3510103255036
SN.node[133].yCoor = 55.42256312886292
SN.node[134].xCoor = 267.0378032223507
SN.node[134].yCoor = 48.989423915243016
SN.node[135].xCoor = 284.91318489118544
SN.node[135].yCoor = 64.89107834671532
SN.node[136].xCoor = 311.16841200299166
SN.node[136].yCoor = 67.91614278372278
SN.node[137].xCoor = 294.97519824433516
SN.node[137].yCoor = 54.074947174261006
SN.node[138].xCoor = 284.57542730314856
SN.node[138].yCoor = 45.909635365669
SN.node[139].xCoor = 319.6619699963912
SN.node[139].yCoor = 56.722080212594214
SN.node[140].xCoor = 358.68271084355575
SN.node[140].yCoor = 58.428516043535986
SN.node[141].xCoor = 355.52164743260477
SN.node[141].yCoor = 69.08589493051875
SN.node[142].xCoor = 326.4796130571214
SN.node[142].yCoor = 41.92081755690125
SN.node[143].xCoor = 349.5381595839028
SN.node[143].yCoor = 64.58201918465866
SN.node[144].xCoor = 339.3444281763923
SN.node[144].yCoor = 68.71564941346831
SN.node[145].xCoor = 391.40917095235505
SN.node[145].yCoor = 53.71142037370328
SN.node[146].xCoor = 378.11337043187314
SN.node[146].yCoor = 50.08827718395371
SN.node[147].xCoor = 366.14715165903175
SN.node[147].yCoor = 50.982267255882945
SN.node[148].xCoor = 374.46865677373137
SN.node[148].yCoor = 73.36815958372303
SN.node[149].xCoor = 387.6390926812942
SN.node[149].yCoor = 66.44960305257428
SN.node[150].xCoor = 410.34243771378584
SN.node[150].yCoor = 62.72659308934931
SN.node[151].xCoor = 417.7107435535993
SN.node[151].yCoor = 53.601419764715075
SN.node[152].xCoor = 429.87156771788614
SN.node[152].yCoor = 66.29457598592862
SN.node[153].xCoor = 409.6013472432445
SN.node[153].yCoor = 78.59492611828239
SN.node[154].xCoor = 411.19826050004974
SN.node[154].yCoor = 59.510710049822826
SN.node[155].xCoor = 452.811523741145
SN.node[155].yCoor = 41.564951922423774
SN.node[156].xCoor = 476.832135436733
SN.node[156].yCoor = 61.35802899560196
SN.node[157].xCoor = 449.0978401603201
SN.node[157].yCoor = 69.22859212777902
SN.node[158].xCoor = 451.69755594155043
SN.node[158].yCoor = 62.065052943770624
SN.node[159].xCoor = 458.72933956807265
SN.node[159].yCoor = 55.6547288546148
SN.node[160].xCoor = 491.465865875749
SN.node[160].yCoor = 58.28824243072969
SN.node[161].xCoor = 492.7928263269173
SN.node[161].yCoor = 55.51101929210107
SN.node[162].xCoor = 484.0579368366745
SN.node[162].yCoor = 49.11258958745633
SN.node[163].xCoor = 511.8505511472609
SN.node[163].yCoor = 62.73333083320001
SN.node[164].xCoor = 496.93995320669336
SN.node[164].yCoor = 60.75846767614589
SN.node[165].xCoor = 528.7539047072897
SN.node[165].yCoor = 48.89895689692648
SN.node[166].xCoor = 557.4237344175011
SN.node[166].yCoor = 48.74999761037561
SN.node[167].xCoor = 523.3481200458087
SN.node[167].yCoor = 59.45174266606753
SN.node[168].xCoor = 526.2914955716842
SN.node[168].yCoor = 69.53213313758505
SN.node[169].xCoor = 530.3829333710169
SN.node[169].yCoor = 41.555411834874256
SN.node[170].xCoor = 575.070072882696
SN.node[170].yCoor = 76.09045720944323
SN.node[171].xCoor = 589.5516978844514
SN.node[171].yCoor = 53.882277062125624
SN.node[172].xCoor = 589.9826868516216
SN.node[172].yCoor = 65.16624093251986
SN.node[173].xCoor = 578.1446191670409
SN.node[173].yCoor = 68.85657742863096
SN.node[174].xCoor = 564.8412913035792
SN.node[174].yCoor = 68.75886768040557
SN.node[175].xCoor = 614.4706284137307
SN.node[175].yCoor = 44.73396061449876
SN.node[176].xCoor = 620.7537783108687
SN.node[176].yCoor = 76.82699443445969
SN.node[177].xCoor = 601.7855245607573
SN.node[177].yCoor = 74.90710852852834
SN.node[178].xCoor = 607.4104531390271
SN.node[178].yCoor = 76.72806988687721
SN.node[179].xCoor = 630.4858822288386
SN.node[179].yCoor = 56.510650763236214
SN.node[180].xCoor = 658.7620583652047
SN.node[180].yCoor = 56.50581171677701
SN.node[181].xCoor = 677.1531770673164
SN.node[181].yCoor = 51.29645364140258
SN.node[182].xCoor = 662.6849065122115
SN.node[182].yCoor = 49.03583982605688
SN.node[183].xCoor = 648.4515229577494
SN.node[183].yCoor = 77.8043028561504
SN.node[184].xCoor = 662.4481630856332
SN.node[184].yCoor = 77.38779683096939
SN.node[185].xCoor = 712.0239327883528
SN.node[185].yCoor = 66.53762211386257
SN.node[186].xCoor = 696.5361014630477
SN.node[186].yCoor = 61.81454200527054
SN.node[187].xCoor = 692.6391038507987
SN.node[187].yCoor = 51.24478389517799
SN.node[188].xCoor = 705.3232631399742
SN.node[188].yCoor = 72.24193302257902
SN.node[189].xCoor = 694.0545662830422
SN.node[189].yCoor = 79.8914359508423
SN.node[190].xCoor = 749.0082261160323
SN.node[190].yCoor = 74.16348408375616
SN.node[191].xCoor = 720.791381779349
SN.node[191].yCoor = 43.85381180395931
SN.node[192].xCoor = 736.2551945261467
SN.node[192].yCoor = 71.4065433665077
SN.node[193].xCoor = 741.8910943704299
SN.node[193].yCoor = 74.18666447922216
SN.node[194].xCoor = 748.0283995397483
SN.node[194].yCoor = 69.6458004258999
SN.node[195].xCoor = 761.7068958038794
SN.node[195].yCoor = 59.4808205335293
SN.node[196].xCoor = 784.4313516918941
SN.node[196].yCoor = 59.324714596230336
SN.node[197].xCoor = 771.5767745591296
SN.node[197].yCoor = 63.602088780454125
SN.node[198].xCoor = 787.8022991016936
SN.node[198].yCoor = 46.24693916095315
SN.node[199].xCoor = 796.5432950883409
SN.node[199].yCoor = 78.74975539214782
SN.node[200].xCoor = 27.97569449375662
SN.node[200].yCoor = 88.08522959766991
SN.node[201].xCoor = 35.723491321127334
SN.node[201].yCoor = 94.14267348769285
SN.node[202].xCoor = 8.613356408151303
SN.node[202].yCoor = 116.64837380555099
SN.node[203].xCoor = 25.776037372507503
SN.node[203].yCoor = 86.4581075123059
SN.node[204].xCoor = 17.42627094461963
SN.node[204].yCoor = 101.05062364293627
SN.node[205].xCoor = 53.70629670938905
SN.node[205].yCoor = 105.28796583106934
SN.node[206].xCoor = 77.40616596210776
SN.node[206].yCoor = 106.5213216766839
SN.node[207].xCoor = 47.48792875503571
SN.node[207].yCoor = 95.23929968879929
SN.node[208].xCoor = 71.75608953253257
SN.node[208].yCoor = 99.39083744712934
SN.node[209].xCoor = 62.86057052032561
SN.node[209].yCoor = 101.3811423931848
SN.node[210].xCoor = 97.19831210971401
SN.node[210].yCoor = 97.54908232453971
SN.node[211].xCoor = 118.85948626087682
SN.node[211].yCoor = 94.94957011225279
SN.node[212].xCoor = 117.17363575172232
SN.node[212].yCoor = 83.3266091201855
SN.node[213].xCoor = 109.72759438972483
SN.node[213].yCoor = 83.28902788027925
SN.node[214].xCoor = 110.17070505601058
SN.node[214].yCoor = 104.57056076668786
SN.node[215].xCoor = 136.0544084204583
SN.node[215].yCoor = 115.89686210849348
SN.node[216].xCoor = 154.6332996946697
SN.node[216].yCoor = 119.65110851170985
SN.node[217].xCoor = 123.74556517938733
SN.node[217].yCoor = 103.5912155648135
SN.node[218].xCoor = 157.3605320370627
SN.node[218].yCoor = 116.78111206440342
SN.node[219].xCoor = 130.98091462900493
SN.node[219].yCoor = 113.835594715128
SN.node[220].xCoor = 189.71799464709835
SN.node[220].yCoor = 102.24215199162815
SN.node[221].xCoor = 163.03630707144532
SN.node[221].yCoor = 97.02652418207457
SN.node[222].xCoor = 177.97439473909583
SN.node[222].yCoor = 92.51942421848588
SN.node[223].xCoor = 184.085544243765
SN.node[223].yCoor = 84.45798601515759
SN.node[224].xCoor = 191.5215443276776
SN.node[224].yCoor = 114.42188350307607
SN.node[225].xCoor = 221.5708850237155
SN.node[225].yCoor = 83.62042618607109
SN.node[226].xCoor = 209.6478917544555
SN.node[226].yCoor = 88.94923173243781
SN.node[227].xCoor = 203.0648545403826
SN.node[227].yCoor = 88.91840760882707
SN.node[228].xCoor = 230.6202577936893
SN.node[228].yCoor = 105.07296281463883
SN.node[229].xCoor = 207.02706071827998
SN.node[229].yCoor = 105.071602209421
SN.node[230].xCoor = 242.4288088161719
SN.node[230].yCoor = 116.63850028210808
SN.node[231].xCoor = 249.2561525101554
SN.node[231].yCoor = 105.96071397326816
SN.node[232].xCoor = 260.7806049471346
SN.node[232].yCoor = 86.99801308047496
SN.node[233].xCoor = 256.6372717625989
SN.node[233].yCoor = 85.57905760605627
SN.node[234].xCoor = 277.57759707863954
SN.node[234].yCoor = 114.402039446513
SN.node[235].xCoor = 295.9702793447755
SN.node[235].yCoor = 86.07030927744772
SN.node[236].xCoor = 280.36588349529876
SN.node[236].yCoor = 93.83509855508893
SN.node[237].xCoor = 390.6476292405568
SN.node[237].yCoor = 84.11533770901637
SN.node[238].xCoor = 452.97140614320216
SN.node[238].yCoor = 91.22227903720729
SN.node[239].xCoor = 452.2470430470191
SN.node[239].yCoor = 90.36196987036958
SN.node[240].xCoor = 462.1551159909618
SN.node[240].yCoor = 87.12041962047427
SN.node[241].xCoor = 511.60358759078974
SN.node[241].yCoor = 105.4386566282696
SN.node[242].xCoor = 496.6859744367529
SN.node[242].yCoor = 99.34315208593186
SN.node[243].xCoor = 491.02576363575963
SN.node[243].yCoor = 92.9591633241404
SN.node[244].xCoor = 505.49280923658057
SN.node[244].yCoor = 87.44253101600876
SN.node[245].xCoor = 556.5494746699214
SN.node[245].yCoor = 82.90040894219888
SN.node[246].xCoor = 520.2185542171145
SN.node[246].yCoor = 112.09895192789548
SN.node[247].xCoor = 524.9552050956147
SN.node[247].yCoor = 88.29362335915471
SN.node[248].xCoor = 540.7333585599241
SN.node[248].yCoor = 118.24828805669694
SN.node[249].xCoor = 555.3292832815838
SN.node[249].yCoor = 99.512752129702
SN.node[250].xCoor = 564.1960644839598
SN.node[250].yCoor = 96.18177996583907
SN.node[251].xCoor = 584.302417378404
SN.node[251].yCoor = 84.4220126992169
SN.node[252].xCoor = 562.5266143677856
SN.node[252].yCoor = 83.95234930967231
SN.node[253].xCoor = 576.0908433430559
SN.node[253].yCoor = 118.48801817120233
SN.node[254].xCoor = 579.2701814084849
SN.node[254].yCoor = 101.90680403102186
SN.node[255].xCoor = 604.607338756437
SN.node[255].yCoor = 99.95421434760158
SN.node[256].xCoor = 627.7145608716479
SN.node[256].yCoor = 102.19831119046862
SN.node[257].xCoor = 611.8112543387776
SN.node[257].yCoor = 86.79457750161336
SN.node[258].xCoor = 637.4150798405038
SN.node[258].yCoor = 83.47899556248449
SN.node[259].xCoor = 625.0512247224971
SN.node[259].yCoor = 113.52195833668115
SN.node[260].xCoor = 651.4111329170521
SN.node[260].yCoor = 118.97707705381575
SN.node[261].xCoor = 655.7603488612269
SN.node[261].yCoor = 113.89802136763606
SN.node[262].xCoor = 661.7098900720937
SN.node[262].yCoor = 93.33002272850274
SN.node[263].xCoor = 645.3740794725367
SN.node[263].yCoor = 87.09935365436453
SN.node[264].xCoor = 654.5395770867799
SN.node[264].yCoor = 89.72770297345458
SN.node[265].xCoor = 704.6835934801742
SN.node[265].yCoor = 111.71830816458991
SN.node[266].xCoor = 706.3095164820788
SN.node[266].yCoor = 112.15936630108936
SN.node[267].xCoor = 680.349956257028
SN.node[267].yCoor = 95.9839285622486
SN.node[268].xCoor = 701.5164322374451
SN.node[268].yCoor = 86.87618536592778
SN.node[269].xCoor = 718.6829431143442
SN.node[269].yCoor = 95.52732210296823
SN.node[270].xCoor = 742.5539700425188
SN.node[270].yCoor = 87.39176751759005
SN.node[271].xCoor = 724.3071814496235
SN.node[271].yCoor = 96.47532224201983
SN.node[272].xCoor = 731.9431542801921
SN.node[272].yCoor = 114.98348662543668
SN.node[273].xCoor = 740.7903804891289
SN.node[273].yCoor = 92.65685711961434
SN.node[274].xCoor = 752.748966241377
SN.node[274].yCoor = 80.44471972693484
SN.node[275].xCoor = 790.750848810497
SN.node[275].yCoor = 96.69679059827888
SN.node[276].xCoor = 780.4825419313738
SN.node[276].yCoor = 83.25059426052923
SN.node[277].xCoor = 791.3768231499516
SN.node[277].yCoor = 102.0413965429436
SN.node[278].xCoor = 790.8503342009245
SN.node[278].yCoor = 97.04848441523062
SN.node[279].xCoor = 772.0965655193061
SN.node[279].yCoor = 105.98163496532206
SN.node[280].xCoor = 20.260174988358486
SN.node[280].yCoor = 138.39484448009318
SN.node[281].xCoor = 34.31616508533756
SN.node[281].yCoor = 146.7489828567954
SN.node[282].xCoor = 16.23153916278765
SN.node[282].yCoor = 123.45736619095811
SN.node[283].xCoor = 4.908211068303228
SN.node[283].yCoor = 120.18777747917818
SN.node[284].xCoor = 30.309935207755274
SN.node[284].yCoor = 130.0712561645407
SN.node[285].xCoor = 76.73952608937935
SN.node[285].yCoor = 132.05172358351967
SN.node[286].xCoor = 49.94774165732018
SN.node[286].yCoor = 147.89935477024815
SN.node[287].xCoor = 50.86990276683592
SN.node[287].yCoor = 126.31436541941183
SN.node[288].xCoor = 41.64028946664523
SN.node[288].yCoor = 124.47320358846224
SN.node[289].xCoor = 54.36487307909751
SN.node[289].yCoor = 152.89489679212605
SN.node[290].xCoor = 89.45334101766066
SN.node[290].yCoor = 140.98000477420416
SN.node[291].xCoor = 85.71781585579495
SN.node[291].yCoor = 120.05037369125588
SN.node[292].xCoor = 105.29296023867738
SN.node[292].yCoor = 121.73453599295249
SN.node[293].xCoor = 93.8952033357347
SN.node[293].yCoor = 156.1627702591433
SN.node[294].xCoor = 119.48342585156178
SN.node[294].yCoor = 142.36633097573466
SN.node[295].xCoor = 125.53687838451327
SN.node[295].yCoor = 152.26048100924913
SN.node[296].xCoor = 136.3835561608073
SN.node[296].yCoor = 154.87565176221202
SN.node[297].xCoor = 153.51550764635903
SN.node[297].yCoor = 140.96418647690004
SN.node[298].xCoor = 124.88549490551064
SN.node[298].yCoor = 153.51072431646242
SN.node[299].xCoor = 134.23044758536477
SN.node[299].yCoor = 149.3789948717053
SN.node[300].xCoor = 197.8385326670074
SN.node[300].yCoor = 128.6469314396903
SN.node[301].xCoor = 181.7329014810223
SN.node[301].yCoor = 142.94536477098939
SN.node[302].xCoor = 187.37954922627438
SN.node[302].yCoor = 126.52612712700613
SN.node[303].xCoor = 173.33286233343085
SN.node[303].yCoor = 123.18214729248129
SN.node[304].xCoor = 168.88568741169172
SN.node[304].yCoor = 121.8360753216536
SN.node[305].xCoor = 210.0821999126982
SN.node[305].yCoor = 131.32338503720555
SN.node[306].xCoor = 225.33600263811707
SN.node[306].yCoor = 132.41304892979537
SN.node[307].xCoor = 202.35069930928339
SN.node[307].yCoor = 128.64419657218713
SN.node[308].xCoor = 232.47334801062846
SN.node[308].yCoor = 122.3395892071288
SN.node[309].xCoor = 212.39407562139942
SN.node[309].yCoor = 155.9022408685909
SN.node[310].xCoor = 243.98277988492762
SN.node[310].yCoor = 123.79743157137153
SN.node[311].xCoor = 241.85419004075493
SN.node[311].yCoor = 139.1471822188386
SN.node[312].xCoor = 530.6674781132326
SN.node[312].yCoor = 124.26691382025324
SN.node[313].xCoor = 599.5717059236813
SN.node[313].yCoor = 128.0491538287478
SN.node[314].xCoor = 564.9453100604221
SN.node[314].yCoor = 126.88109023341666
SN.node[315].xCoor = 565.5938673323543
SN.node[315].yCoor = 152.7862567702614
SN.node[316].xCoor = 561.7484874015466
SN.node[316].yCoor = 149.26979309208016
SN.node[317].xCoor = 594.9208846846903
SN.node[317].yCoor = 130.46488345200976
SN.node[318].xCoor = 619.134797634238
SN.node[318].yCoor = 156.9592462263748
SN.node[319].xCoor = 601.6474033502004
SN.node[319].yCoor = 156.6931024155203
SN.node[320].xCoor = 604.863809359456
SN.node[320].yCoor = 143.62006353413312
SN.node[321].xCoor = 601.168458808336
SN.node[321].yCoor = 135.02824336766508
SN.node[322].xCoor = 624.910298351599
SN.node[322].yCoor = 139.76483219564466
SN.node[323].xCoor = 652.3121907883332
SN.node[323].yCoor = 140.61531868669027
SN.node[324].xCoor = 658.4895883125619
SN.node[324].yCoor = 120.45524559408014
SN.node[325].xCoor = 653.0543697976385
SN.node[325].yCoor = 155.32935661816214
SN.node[326].xCoor = 646.826763685574
SN.node[326].yCoor = 141.29827141757488
SN.node[327].xCoor = 646.3967857083918
SN.node[327].yCoor = 147.23788236230237
SN.node[328].xCoor = 693.8571611486061
SN.node[328].yCoor = 157.16026424954958
SN.node[329].xCoor = 702.5208472999067
SN.node[329].yCoor = 127.18082714548271
SN.node[330].xCoor = 684.072802260747
SN.node[330].yCoor = 124.87628860804531
SN.node[331].xCoor = 697.5327090865594
SN.node[331].yCoor = 134.1836028732023
SN.node[332].xCoor = 710.1126550351715
SN.node[332].yCoor = 153.86369486783383
SN.node[333].xCoor = 752.9935441806712
SN.node[333].yCoor = 132.08915859521284
SN.node[334].xCoor = 733.3790056005531
SN.node[334].yCoor = 149.64156953902108
SN.node[335].xCoor = 738.3108987515675
SN.node[335].yCoor = 141.62214792049548
SN.node[336].xCoor = 749.6057040216494
SN.node[336].yCoor = 154.553918045162
SN.node[337].xCoor = 733.720249169186
SN.node[337].yCoor = 152.41288531007422
SN.node[338].xCoor = 790.0973204466746
SN.node[338].yCoor = 151.80772374513214
SN.node[339].xCoor = 779.2182109099147
SN.node[339].yCoor = 127.56829986681895
SN.node[340].xCoor = 789.7671489957825
SN.node[340].yCoor = 150.26410970255554
SN.node[341].xCoor = 785.996005022372
SN.node[341].yCoor = 132.95428542118245
SN.node[342].xCoor = 775.8827001422067
SN.node[342].yCoor = 155.26978453289667
SN.node[343].xCoor = 12.544674657801984
SN.node[343].yCoor = 196.23959766950327
SN.node[344].xCoor = 36.04896282596695
SN.node[344].yCoor = 195.50103587666342
SN.node[345].xCoor = 12.437978626198456
SN.node[345].yCoor = 166.57817742026478
SN.node[346].xCoor = 18.849196650303554
SN.node[346].yCoor = 186.85990151095152
SN.node[347].xCoor = 26.709425847134398
SN.node[347].yCoor = 186.50358501478868
SN.node[348].xCoor = 69.60604781051998
SN.node[348].yCoor = 191.12288869287104
SN.node[349].xCoor = 44.02001899753537
SN.node[349].yCoor = 176.19526915571217
SN.node[350].xCoor = 51.82298658557236
SN.node[350].yCoor = 194.7466040724101
SN.node[351].xCoor = 46.901973037119305
SN.node[351].yCoor = 195.37607000436992
SN.node[352].xCoor = 74.26564754480918
SN.node[352].yCoor = 180.27502435261712
SN.node[353].xCoor = 92.59832547165163
SN.node[353].yCoor = 168.7094204731358
SN.node[354].xCoor = 83.16821194924817
SN.node[354].yCoor = 168.36521316214223
SN.node[355].xCoor = 116.0926045985584
SN.node[355].yCoor = 168.14163943369277
SN.node[356].xCoor = 83.44113726400535
SN.node[356].yCoor = 163.0426355788348
SN.node[357].xCoor = 91.52985475152701
SN.node[357].yCoor = 193.31124009147624
SN.node[358].xCoor = 132.5015437392874
SN.node[358].yCoor = 188.529702464531
SN.node[359].xCoor = 136.17575644157773
SN.node[359].yCoor = 191.74051839611124