[General]

# ==========================================================
# Always include the main Castalia.ini file
# ==========================================================

include ../Parameters/Castalia.ini

sim-time-limit = 15s

#include wsn_experiment.ini

SN.wirelessChannel.onlyStaticNodes = true
SN.wirelessChannel.sigma = 0
SN.wirelessChannel.bidirectionalSigma = 0
# Choose a radio and set the Tx power to a low value so
# that node's mobility has a better effect on connectivity
SN.node[*].Communication.Radio.RadioParametersFile = "../Parameters/Radio/CC2420.txt"
SN.node[*].Communication.Radio.TxOutputPower = "-5dBm"
SN.wirelessChannel.pathLossExponent = 2.4
SN.wirelessChannel.PLd0 = 51.55056 # 40m -> PLd0 = (-5dBm - max(-95dBm, -100dBm)) - 10 * pathLossExponent * log(40m)
SN.node[*].Communication.Radio.mode = "IDEAL"
SN.node[*].Communication.Radio.collisionModel = 0

#SN.node[*].Communication.MACProtocolName = "TunableMAC"
#SN.node[*].Communication.MAC.dutyCycle = 1.0
#SN.node[*].Communication.MAC.randomTxOffset = 0
#SN.node[*].Communication.MAC.backoffType = 2

#SN.node[*].Communication.RoutingProtocolName = "GreedyRouting"
# be carefull, turning debig info on may generate a lot of trace data
SN.node[*].Communication.Routing.collectTraceInfo = true

SN.node[*].ApplicationName = "SimplePairApplication"
SN.node[*].Application.collectTraceInfo = false

#SN.node[0].Application.packet_rate = 0.2
#SN.node[0].Application.maxData = 100
#SN.node[0].Application.startupDelay = 10
#SN.node[0].Application.nextRecipient = "2"


SN.node[*].Communication.RoutingProtocolName = "StableRouting"
SN.node[*].Communication.MACProtocolName = "TMAC"
SN.node[*].Communication.MAC.listenTimeout = 61
SN.node[*].Communication.MAC.disableTAextension = true
SN.node[*].Communication.MAC.conservativeTA = false
SN.node[*].Communication.MAC.collisionResolution = 0
SN.numNodes = 1483
SN.field_x = 800
SN.field_y = 800
SN.node[0].xCoor = 20.977863111037927
SN.node[0].yCoor = 16.551281429243623
SN.node[1].xCoor = 30.255977371007276
SN.node[1].yCoor = 12.369198929558758
SN.node[2].xCoor = 32.59322767268137
SN.node[2].yCoor = 30.87771042321834
SN.node[3].xCoor = 23.12337573777608
SN.node[3].yCoor = 8.312767226272975
SN.node[4].xCoor = 35.72648419559869
SN.node[4].yCoor = 30.83553777029678
SN.node[5].xCoor = 63.94359277105947
SN.node[5].yCoor = 34.21942730378745
SN.node[6].xCoor = 49.64288235226512
SN.node[6].yCoor = 14.36878461335179
SN.node[7].xCoor = 49.25557207589715
SN.node[7].yCoor = 1.382519359212253
SN.node[8].xCoor = 40.02469634695129
SN.node[8].yCoor = 5.933040694642129
SN.node[9].xCoor = 64.16026833356196
SN.node[9].yCoor = 37.185532775175815
SN.node[10].xCoor = 106.04246406189438
SN.node[10].yCoor = 2.813234759484873
SN.node[11].xCoor = 95.1676369589014
SN.node[11].yCoor = 25.39249151148235
SN.node[12].xCoor = 102.08782067603332
SN.node[12].yCoor = 21.10199152227448
SN.node[13].xCoor = 81.75214727244052
SN.node[13].yCoor = 37.34341778199352
SN.node[14].xCoor = 113.13298651831235
SN.node[14].yCoor = 21.79352834595157
SN.node[15].xCoor = 151.40666512030722
SN.node[15].yCoor = 24.598814831376412
SN.node[16].xCoor = 153.47933296897617
SN.node[16].yCoor = 7.027697350008957
SN.node[17].xCoor = 152.8591512523589
SN.node[17].yCoor = 15.685175566438163
SN.node[18].xCoor = 157.21598426706296
SN.node[18].yCoor = 10.969258517422569
SN.node[19].xCoor = 136.10577314524312
SN.node[19].yCoor = 22.790983122687656
SN.node[20].xCoor = 185.718023884093
SN.node[20].yCoor = 38.252702397234145
SN.node[21].xCoor = 191.3504050626983
SN.node[21].yCoor = 20.286787493055726
SN.node[22].xCoor = 186.69816535548765
SN.node[22].yCoor = 32.22117201936566
SN.node[23].xCoor = 178.25771597210883
SN.node[23].yCoor = 5.486195559737315
SN.node[24].xCoor = 194.75219758162243
SN.node[24].yCoor = 35.35390923899592
SN.node[25].xCoor = 234.66873001788946
SN.node[25].yCoor = 5.499907115373386
SN.node[26].xCoor = 208.061166002705
SN.node[26].yCoor = 0.44058172432627885
SN.node[27].xCoor = 218.763372228169
SN.node[27].yCoor = 30.402320319202232
SN.node[28].xCoor = 204.74419732471517
SN.node[28].yCoor = 36.92743141483773
SN.node[29].xCoor = 212.97831608505706
SN.node[29].yCoor = 21.346100039390432
SN.node[30].xCoor = 250.28697987979973
SN.node[30].yCoor = 7.945084296074159
SN.node[31].xCoor = 257.3030810033002
SN.node[31].yCoor = 30.186145061729015
SN.node[32].xCoor = 268.828075256353
SN.node[32].yCoor = 11.35142476073586
SN.node[33].xCoor = 248.87490002977572
SN.node[33].yCoor = 10.707065202484518
SN.node[34].xCoor = 261.42763369871074
SN.node[34].yCoor = 36.75554578705692
SN.node[35].xCoor = 287.59604017308345
SN.node[35].yCoor = 4.276519642564187
SN.node[36].xCoor = 317.10068245198784
SN.node[36].yCoor = 10.245754520330888
SN.node[37].xCoor = 300.94847340928504
SN.node[37].yCoor = 39.75343353000415
SN.node[38].xCoor = 308.6743579812367
SN.node[38].yCoor = 5.981385045340817
SN.node[39].xCoor = 288.7421451947051
SN.node[39].yCoor = 26.563333625761103
SN.node[40].xCoor = 356.14450654265534
SN.node[40].yCoor = 15.917791912485786
SN.node[41].xCoor = 350.48220867773557
SN.node[41].yCoor = 30.158696789155563
SN.node[42].xCoor = 356.4428786244961
SN.node[42].yCoor = 38.24647399091536
SN.node[43].xCoor = 328.25541460223565
SN.node[43].yCoor = 1.3059605210355585
SN.node[44].xCoor = 333.7056995986781
SN.node[44].yCoor = 16.43130718699051
SN.node[45].xCoor = 385.88928927074096
SN.node[45].yCoor = 2.1409138488564494
SN.node[46].xCoor = 363.0078951523349
SN.node[46].yCoor = 35.47591740880662
SN.node[47].xCoor = 374.7388287770483
SN.node[47].yCoor = 18.277238738446027
SN.node[48].xCoor = 361.5743157070145
SN.node[48].yCoor = 1.3286379923994218
SN.node[49].xCoor = 386.84492254066674
SN.node[49].yCoor = 11.014576541827461
SN.node[50].xCoor = 404.42538509030356
SN.node[50].yCoor = 5.411511449535142
SN.node[51].xCoor = 425.523637118522
SN.node[51].yCoor = 6.261944068990033
SN.node[52].xCoor = 436.10989397736176
SN.node[52].yCoor = 17.886243782112004
SN.node[53].xCoor = 436.9708512769445
SN.node[53].yCoor = 19.8272752405879
SN.node[54].xCoor = 436.1540682896964
SN.node[54].yCoor = 24.61604701477163
SN.node[55].xCoor = 454.8181037416382
SN.node[55].yCoor = 18.68318932294371
SN.node[56].xCoor = 450.81036064681984
SN.node[56].yCoor = 28.420480074855714
SN.node[57].xCoor = 442.11976581439467
SN.node[57].yCoor = 35.06193895059176
SN.node[58].xCoor = 472.4406693214182
SN.node[58].yCoor = 15.285875928913928
SN.node[59].xCoor = 457.61163177320697
SN.node[59].yCoor = 3.2890082295887346
SN.node[60].xCoor = 509.5214422868471
SN.node[60].yCoor = 15.70000098804476
SN.node[61].xCoor = 487.18994385569187
SN.node[61].yCoor = 37.105034577406585
SN.node[62].xCoor = 495.6401921175452
SN.node[62].yCoor = 17.41680998913301
SN.node[63].xCoor = 509.788101705301
SN.node[63].yCoor = 11.108021967791997
SN.node[64].xCoor = 508.3933553097241
SN.node[64].yCoor = 20.750090248333866
SN.node[65].xCoor = 553.0300797062991
SN.node[65].yCoor = 10.036927694707094
SN.node[66].xCoor = 538.8641162654532
SN.node[66].yCoor = 14.895091817290664
SN.node[67].xCoor = 526.3313067570277
SN.node[67].yCoor = 29.610508452322748
SN.node[68].xCoor = 552.061535265264
SN.node[68].yCoor = 3.606240055036274
SN.node[69].xCoor = 544.6409570032916
SN.node[69].yCoor = 17.348002669090636
SN.node[70].xCoor = 567.9100196745455
SN.node[70].yCoor = 15.989187136895149
SN.node[71].xCoor = 586.264698327215
SN.node[71].yCoor = 1.4722714766809464
SN.node[72].xCoor = 580.1542120542284
SN.node[72].yCoor = 1.0643788346039518
SN.node[73].xCoor = 587.9520549808947
SN.node[73].yCoor = 15.567254688752401
SN.node[74].xCoor = 564.7448769702172
SN.node[74].yCoor = 16.071754386902146
SN.node[75].xCoor = 627.1377342690564
SN.node[75].yCoor = 21.29294026609201
SN.node[76].xCoor = 602.1379814722673
SN.node[76].yCoor = 33.282105099040734
SN.node[77].xCoor = 605.8158892562569
SN.node[77].yCoor = 1.7728412426693385
SN.node[78].xCoor = 608.193309678523
SN.node[78].yCoor = 5.357990702666733
SN.node[79].xCoor = 626.0824763808221
SN.node[79].yCoor = 39.07700761805713
SN.node[80].xCoor = 674.4398902234738
SN.node[80].yCoor = 4.844795496220167
SN.node[81].xCoor = 646.2713257590906
SN.node[81].yCoor = 34.92222473673431
SN.node[82].xCoor = 670.3717802598837
SN.node[82].yCoor = 15.68276635569723
SN.node[83].xCoor = 675.7500492726342
SN.node[83].yCoor = 28.937486526057377
SN.node[84].xCoor = 674.3950130490131
SN.node[84].yCoor = 37.39948621649021
SN.node[85].xCoor = 686.2106235126107
SN.node[85].yCoor = 10.760383908089972
SN.node[86].xCoor = 711.8784830181343
SN.node[86].yCoor = 0.18211144044226302
SN.node[87].xCoor = 695.9658661759978
SN.node[87].yCoor = 11.047098061451202
SN.node[88].xCoor = 688.9494355395614
SN.node[88].yCoor = 8.723841922276092
SN.node[89].xCoor = 687.8592362953756
SN.node[89].yCoor = 18.297169169576
SN.node[90].xCoor = 757.6507242681697
SN.node[90].yCoor = 16.9833084896179
SN.node[91].xCoor = 734.0796190166836
SN.node[91].yCoor = 28.486618603013873
SN.node[92].xCoor = 754.3336081679896
SN.node[92].yCoor = 16.05570016561198
SN.node[93].xCoor = 732.3782267870473
SN.node[93].yCoor = 7.0140182873257295
SN.node[94].xCoor = 739.8884408679379
SN.node[94].yCoor = 30.260522752872852
SN.node[95].xCoor = 790.4442238456468
SN.node[95].yCoor = 21.15622739720923
SN.node[96].xCoor = 760.924137872829
SN.node[96].yCoor = 30.53351784285084
SN.node[97].xCoor = 776.1492867408174
SN.node[97].yCoor = 34.49089560639897
SN.node[98].xCoor = 782.8894727337781
SN.node[98].yCoor = 25.342479187897435
SN.node[99].xCoor = 777.5736683823503
SN.node[99].yCoor = 36.92054207697684
SN.node[100].xCoor = 30.14876244534839
SN.node[100].yCoor = 73.19685938812546
SN.node[101].xCoor = 23.867828750661566
SN.node[101].yCoor = 53.42917706904787
SN.node[102].xCoor = 19.228362860939818
SN.node[102].yCoor = 41.44911960255783
SN.node[103].xCoor = 20.15308889334987
SN.node[103].yCoor = 66.66862402296383
SN.node[104].xCoor = 31.060946567469685
SN.node[104].yCoor = 60.23654275509039
SN.node[105].xCoor = 74.33239392034592
SN.node[105].yCoor = 58.522544510789636
SN.node[106].xCoor = 65.15957849776066
SN.node[106].yCoor = 72.09411685537071
SN.node[107].xCoor = 48.48736671861204
SN.node[107].yCoor = 57.75883157479588
SN.node[108].xCoor = 74.97678458764447
SN.node[108].yCoor = 71.51624149443666
SN.node[109].xCoor = 61.24280869157057
SN.node[109].yCoor = 48.26589365670742
SN.node[110].xCoor = 118.57421977048645
SN.node[110].yCoor = 42.30565893367853
SN.node[111].xCoor = 82.13566336611022
SN.node[111].yCoor = 44.35370906562917
SN.node[112].xCoor = 119.40033864257109
SN.node[112].yCoor = 59.66391248500344
SN.node[113].xCoor = 98.93702007729503
SN.node[113].yCoor = 40.65443527138263
SN.node[114].xCoor = 105.9097765385367
SN.node[114].yCoor = 47.86009643884054
SN.node[115].xCoor = 120.8635027964212
SN.node[115].yCoor = 60.2919021450417
SN.node[116].xCoor = 150.38003323792978
SN.node[116].yCoor = 49.856634245417965
SN.node[117].xCoor = 156.9616195059886
SN.node[117].yCoor = 41.17377137442391
SN.node[118].xCoor = 142.33711033448554
SN.node[118].yCoor = 45.98229119702657
SN.node[119].xCoor = 127.92165577077284
SN.node[119].yCoor = 58.22949181956155
SN.node[120].xCoor = 173.60528879661132
SN.node[120].yCoor = 53.075969109797086
SN.node[121].xCoor = 176.3301673441069
SN.node[121].yCoor = 66.76383087313314
SN.node[122].xCoor = 196.04207377499057
SN.node[122].yCoor = 41.25448374973268
SN.node[123].xCoor = 188.1280496694443
SN.node[123].yCoor = 60.21566471687357
SN.node[124].xCoor = 180.98803906194115
SN.node[124].yCoor = 75.79666676044292
SN.node[125].xCoor = 235.85793250886067
SN.node[125].yCoor = 72.3753163362812
SN.node[126].xCoor = 209.6092644247038
SN.node[126].yCoor = 49.77362249167513
SN.node[127].xCoor = 200.80759757627322
SN.node[127].yCoor = 79.46117027560433
SN.node[128].xCoor = 212.8545218088722
SN.node[128].yCoor = 78.17145766249013
SN.node[129].xCoor = 227.31009998251386
SN.node[129].yCoor = 61.301564241971846
SN.node[130].xCoor = 277.11625608888255
SN.node[130].yCoor = 63.38329393801733
SN.node[131].xCoor = 255.62745192164468
SN.node[131].yCoor = 43.61418111297874
SN.node[132].xCoor = 273.93620528283327
SN.node[132].yCoor = 62.35245120909102
SN.node[133].xCoor = 259.04876123532614
SN.node[133].yCoor = 69.29118735105871
SN.node[134].xCoor = 261.35456883999746
SN.node[134].yCoor = 59.59745742667464
SN.node[135].xCoor = 299.6668503976405
SN.node[135].yCoor = 60.37790990720083
SN.node[136].xCoor = 291.1495172704403
SN.node[136].yCoor = 47.98853122043947
SN.node[137].xCoor = 293.5274430485041
SN.node[137].yCoor = 64.44520698755551
SN.node[138].xCoor = 315.2766163011431
SN.node[138].yCoor = 68.09870456027336
SN.node[139].xCoor = 306.94657142066313
SN.node[139].yCoor = 54.09245121141581
SN.node[140].xCoor = 349.74673839340903
SN.node[140].yCoor = 68.51568287591658
SN.node[141].xCoor = 332.8110747415138
SN.node[141].yCoor = 50.09245233515461
SN.node[142].xCoor = 322.58851971574876
SN.node[142].yCoor = 61.05171315192001
SN.node[143].xCoor = 323.985044502318
SN.node[143].yCoor = 74.53790333326657
SN.node[144].xCoor = 337.85627992705327
SN.node[144].yCoor = 78.66321389045083
SN.node[145].xCoor = 365.6066960688767
SN.node[145].yCoor = 51.64040628808561
SN.node[146].xCoor = 381.7496568707942
SN.node[146].yCoor = 55.04936649467638
SN.node[147].xCoor = 369.3688814897937
SN.node[147].yCoor = 67.63676258573926
SN.node[148].xCoor = 375.51050759871634
SN.node[148].yCoor = 60.998332021110514
SN.node[149].xCoor = 370.1632634956156
SN.node[149].yCoor = 50.58805697897196
SN.node[150].xCoor = 401.47606364825515
SN.node[150].yCoor = 41.23750092750413
SN.node[151].xCoor = 434.35158828048225
SN.node[151].yCoor = 49.56483546518999
SN.node[152].xCoor = 438.9442555220551
SN.node[152].yCoor = 57.578283258732796
SN.node[153].xCoor = 405.9397563162069
SN.node[153].yCoor = 58.7166631342029
SN.node[154].xCoor = 413.41645250516586
SN.node[154].yCoor = 42.20395832320256
SN.node[155].xCoor = 474.3792151869836
SN.node[155].yCoor = 46.074251663846084
SN.node[156].xCoor = 450.7058058603218
SN.node[156].yCoor = 68.85912357548125
SN.node[157].xCoor = 456.9767569557186
SN.node[157].yCoor = 66.5448615791187
SN.node[158].xCoor = 474.60091408654495
SN.node[158].yCoor = 58.897221725217086
SN.node[159].xCoor = 464.3371057710547
SN.node[159].yCoor = 62.84079823494325
SN.node[160].xCoor = 499.2375588869571
SN.node[160].yCoor = 74.38574323366967
SN.node[161].xCoor = 514.7317671929908
SN.node[161].yCoor = 75.11945670188273
SN.node[162].xCoor = 482.9680524208079
SN.node[162].yCoor = 73.64073140567918
SN.node[163].xCoor = 516.2732629820428
SN.node[163].yCoor = 44.625446949229506
SN.node[164].xCoor = 502.1832864075054
SN.node[164].yCoor = 62.105760996235865
SN.node[165].xCoor = 540.8011078717803
SN.node[165].yCoor = 76.72629853739473
SN.node[166].xCoor = 559.4730308819235
SN.node[166].yCoor = 50.71094890608826
SN.node[167].xCoor = 534.8069612900322
SN.node[167].yCoor = 63.478853703264335
SN.node[168].xCoor = 539.4558752512519
SN.node[168].yCoor = 63.41434620142461
SN.node[169].xCoor = 554.6984613145356
SN.node[169].yCoor = 57.38849434086265
SN.node[170].xCoor = 591.3276565658313
SN.node[170].yCoor = 65.65586238481805
SN.node[171].xCoor = 597.697849537763
SN.node[171].yCoor = 47.29684758630054
SN.node[172].xCoor = 598.3686265667667
SN.node[172].yCoor = 64.45375578531232
SN.node[173].xCoor = 598.5633441379923
SN.node[173].yCoor = 69.66669378949234
SN.node[174].xCoor = 594.4245239423526
SN.node[174].yCoor = 50.891528853037535
SN.node[175].xCoor = 607.8804575236652
SN.node[175].yCoor = 46.38865909231927
SN.node[176].xCoor = 606.0657588402964
SN.node[176].yCoor = 57.16017037641621
SN.node[177].xCoor = 605.7029300825258
SN.node[177].yCoor = 75.97801772979139
SN.node[178].xCoor = 633.3317890795714
SN.node[178].yCoor = 42.468271927688605
SN.node[179].xCoor = 629.1004729139177
SN.node[179].yCoor = 51.13185452058332
SN.node[180].xCoor = 672.5178063642719
SN.node[180].yCoor = 73.09538283260633
SN.node[181].xCoor = 640.3606176440335
SN.node[181].yCoor = 50.86090011054405
SN.node[182].xCoor = 646.2804802278448
SN.node[182].yCoor = 41.96904267892677
SN.node[183].xCoor = 668.9853769760526
SN.node[183].yCoor = 58.45235200928193
SN.node[184].xCoor = 676.2565412382897
SN.node[184].yCoor = 44.76960989306832
SN.node[185].xCoor = 688.2927275017023
SN.node[185].yCoor = 70.34712804185848
SN.node[186].xCoor = 696.3227364871238
SN.node[186].yCoor = 79.28688134215034
SN.node[187].xCoor = 712.6186717289193
SN.node[187].yCoor = 45.525833669708966
SN.node[188].xCoor = 688.9659829560463
SN.node[188].yCoor = 45.36480881267863
SN.node[189].xCoor = 702.543716658455
SN.node[189].yCoor = 79.536673160706
SN.node[190].xCoor = 749.5676883177429
SN.node[190].yCoor = 63.646243512878236
SN.node[191].xCoor = 735.1288383048828
SN.node[191].yCoor = 56.22060130136931
SN.node[192].xCoor = 757.1561437523303
SN.node[192].yCoor = 63.8100759336798
SN.node[193].xCoor = 753.9071311132144
SN.node[193].yCoor = 77.84028926456682
SN.node[194].xCoor = 734.369248609812
SN.node[194].yCoor = 58.26807118182621
SN.node[195].xCoor = 780.5798843269832
SN.node[195].yCoor = 50.18097750771932
SN.node[196].xCoor = 765.211293360019
SN.node[196].yCoor = 61.827252908872445
SN.node[197].xCoor = 765.4363764939379
SN.node[197].yCoor = 61.92923073945111
SN.node[198].xCoor = 779.871467775247
SN.node[198].yCoor = 71.7517145570242
SN.node[199].xCoor = 795.0223949487245
SN.node[199].yCoor = 64.92195219980793
SN.node[200].xCoor = 2.704650972280387
SN.node[200].yCoor = 90.07717987320785
SN.node[201].xCoor = 19.467624175874878
SN.node[201].yCoor = 119.26491382126409
SN.node[202].xCoor = 35.793278793037935
SN.node[202].yCoor = 97.17738385677401
SN.node[203].xCoor = 25.921168801248236
SN.node[203].yCoor = 117.81710769733932
SN.node[204].xCoor = 4.159218642832165
SN.node[204].yCoor = 116.89299952153897
SN.node[205].xCoor = 59.123297523908974
SN.node[205].yCoor = 96.95724055314899
SN.node[206].xCoor = 69.57399977421233
SN.node[206].yCoor = 106.52168319654787
SN.node[207].xCoor = 51.02876829615359
SN.node[207].yCoor = 86.31937756944802
SN.node[208].xCoor = 70.56233825376927
SN.node[208].yCoor = 118.53892618162573
SN.node[209].xCoor = 79.43772444209367
SN.node[209].yCoor = 106.87224574299096
SN.node[210].xCoor = 105.6323765665915
SN.node[210].yCoor = 84.50532475450788
SN.node[211].xCoor = 101.30115485920669
SN.node[211].yCoor = 92.91950768136336
SN.node[212].xCoor = 111.70961857563691
SN.node[212].yCoor = 118.41797101165342
SN.node[213].xCoor = 89.99018675180201
SN.node[213].yCoor = 107.62845325017253
SN.node[214].xCoor = 97.40935791129442
SN.node[214].yCoor = 88.54515745750012
SN.node[215].xCoor = 133.1291176766083
SN.node[215].yCoor = 107.75364658399802
SN.node[216].xCoor = 127.31133142637208
SN.node[216].yCoor = 111.04792564968676
SN.node[217].xCoor = 138.57233176975893
SN.node[217].yCoor = 118.33146446394352
SN.node[218].xCoor = 132.63186939214262
SN.node[218].yCoor = 80.39934432771732
SN.node[219].xCoor = 121.92473212337325
SN.node[219].yCoor = 87.42124486036204
SN.node[220].xCoor = 186.2539695599785
SN.node[220].yCoor = 117.05495102453911
SN.node[221].xCoor = 189.9607069943418
SN.node[221].yCoor = 106.28964503370565
SN.node[222].xCoor = 176.33183245290286
SN.node[222].yCoor = 97.64892137957727
SN.node[223].xCoor = 197.1771471308958
SN.node[223].yCoor = 87.34601592524567
SN.node[224].xCoor = 163.88755281623193
SN.node[224].yCoor = 109.79447225980223
SN.node[225].xCoor = 239.4223197011615
SN.node[225].yCoor = 104.97231302717742
SN.node[226].xCoor = 213.28953511831762
SN.node[226].yCoor = 116.80231668549176
SN.node[227].xCoor = 234.48110682083765
SN.node[227].yCoor = 100.07355431573035
SN.node[228].xCoor = 235.53300742832732
SN.node[228].yCoor = 93.91815199143777
SN.node[229].xCoor = 237.5965379625558
SN.node[229].yCoor = 105.33645621964035
SN.node[230].xCoor = 254.13815541198247
SN.node[230].yCoor = 116.35786140862379
SN.node[231].xCoor = 278.85882807634476
SN.node[231].yCoor = 101.57216887393176
SN.node[232].xCoor = 263.1522893897569
SN.node[232].yCoor = 84.26799680358263
SN.node[233].xCoor = 255.83269056362693
SN.node[233].yCoor = 90.5303524840075
SN.node[234].xCoor = 272.92234397175474
SN.node[234].yCoor = 103.3565740623551
SN.node[235].xCoor = 311.11099293485216
SN.node[235].yCoor = 87.26641646395923
SN.node[236].xCoor = 300.27805039775075
SN.node[236].yCoor = 90.29817603531384
SN.node[237].xCoor = 284.4955642388857
SN.node[237].yCoor = 81.74084511625348
SN.node[238].xCoor = 308.1667865088697
SN.node[238].yCoor = 99.90694914462219
SN.node[239].xCoor = 308.3516745592173
SN.node[239].yCoor = 103.88623514923253
SN.node[240].xCoor = 342.7332575529982
SN.node[240].yCoor = 84.36011844497814
SN.node[241].xCoor = 329.2020358600337
SN.node[241].yCoor = 106.39707046111639
SN.node[242].xCoor = 343.31107340056155
SN.node[242].yCoor = 99.1583235037712
SN.node[243].xCoor = 333.1080653758258
SN.node[243].yCoor = 115.35800500368323
SN.node[244].xCoor = 332.97417514584504
SN.node[244].yCoor = 108.01352142393625
SN.node[245].xCoor = 379.0845973674824
SN.node[245].yCoor = 114.65394004680235
SN.node[246].xCoor = 390.9585637017305
SN.node[246].yCoor = 104.23205753543633
SN.node[247].xCoor = 376.0662248191883
SN.node[247].yCoor = 110.48790053991524
SN.node[248].xCoor = 396.6840856294131
SN.node[248].yCoor = 115.26139567326281
SN.node[249].xCoor = 385.97433354596905
SN.node[249].yCoor = 118.66411106202736
SN.node[250].xCoor = 412.8880834511697
SN.node[250].yCoor = 112.60579965891384
SN.node[251].xCoor = 439.89303039186507
SN.node[251].yCoor = 118.45936888917659
SN.node[252].xCoor = 423.34516750938536
SN.node[252].yCoor = 93.07096135538166
SN.node[253].xCoor = 435.9482239390728
SN.node[253].yCoor = 93.80963209417169
SN.node[254].xCoor = 439.4950694801653
SN.node[254].yCoor = 84.80327844322204
SN.node[255].xCoor = 477.6721426501282
SN.node[255].yCoor = 84.7598351494379
SN.node[256].xCoor = 455.8219614368435
SN.node[256].yCoor = 110.07506612846058
SN.node[257].xCoor = 442.6889790918184
SN.node[257].yCoor = 89.034003825353
SN.node[258].xCoor = 448.14297169957314
SN.node[258].yCoor = 102.39213513029043
SN.node[259].xCoor = 450.51788847529235
SN.node[259].yCoor = 112.08618592204986
SN.node[260].xCoor = 503.0541320663602
SN.node[260].yCoor = 101.40259391470488
SN.node[261].xCoor = 508.2821810605829
SN.node[261].yCoor = 93.45098864150518
SN.node[262].xCoor = 491.978781337668
SN.node[262].yCoor = 99.04126778752413
SN.node[263].xCoor = 504.4695357138289
SN.node[263].yCoor = 115.1096977891991
SN.node[264].xCoor = 510.723369169689
SN.node[264].yCoor = 107.19063621422038
SN.node[265].xCoor = 529.9201218109393
SN.node[265].yCoor = 102.4029493683022
SN.node[266].xCoor = 528.0560683393776
SN.node[266].yCoor = 95.96824529928057
SN.node[267].xCoor = 548.2427287959911
SN.node[267].yCoor = 110.2780129710144
SN.node[268].xCoor = 555.6791597938851
SN.node[268].yCoor = 82.83139723168675
SN.node[269].xCoor = 552.9209738757925
SN.node[269].yCoor = 110.27376173749849
SN.node[270].xCoor = 597.2515725585007
SN.node[270].yCoor = 80.94533878413
SN.node[271].xCoor = 576.015018544292
SN.node[271].yCoor = 96.3741637690589
SN.node[272].xCoor = 588.1660184187587
SN.node[272].yCoor = 89.85642446755861
SN.node[273].xCoor = 573.3864245674927
SN.node[273].yCoor = 89.21545564859412
SN.node[274].xCoor = 599.9850028872224
SN.node[274].yCoor = 116.09915671053363
SN.node[275].xCoor = 614.0416649320831
SN.node[275].yCoor = 85.3591140808547
SN.node[276].xCoor = 603.2664047405706
SN.node[276].yCoor = 106.94274503170598
SN.node[277].xCoor = 607.8558520000547
SN.node[277].yCoor = 110.40928070983422
SN.node[278].xCoor = 624.3788860683378
SN.node[278].yCoor = 95.40875679704878
SN.node[279].xCoor = 624.0480785722219
SN.node[279].yCoor = 83.37236812476166
SN.node[280].xCoor = 659.3307590427044
SN.node[280].yCoor = 81.60360021012812
SN.node[281].xCoor = 675.9866930533894
SN.node[281].yCoor = 109.67839421010959
SN.node[282].xCoor = 646.2228933323088
SN.node[282].yCoor = 94.72043555867982
SN.node[283].xCoor = 663.5908907894255
SN.node[283].yCoor = 93.96403839817792
SN.node[284].xCoor = 677.0234839708501
SN.node[284].yCoor = 83.23545741267657
SN.node[285].xCoor = 715.2358805265139
SN.node[285].yCoor = 108.42552132019594
SN.node[286].xCoor = 688.4689404271912
SN.node[286].yCoor = 113.95746526820668
SN.node[287].xCoor = 685.7334304922989
SN.node[287].yCoor = 80.79954982381363
SN.node[288].xCoor = 718.7476106868634
SN.node[288].yCoor = 90.5748740388833
SN.node[289].xCoor = 705.3247983970467
SN.node[289].yCoor = 96.29914260750697
SN.node[290].xCoor = 721.1985886499265
SN.node[290].yCoor = 85.81967127888826
SN.node[291].xCoor = 741.8660608151724
SN.node[291].yCoor = 99.46798723258723
SN.node[292].xCoor = 742.6462524560528
SN.node[292].yCoor = 92.5647986072341
SN.node[293].xCoor = 746.7589756881089
SN.node[293].yCoor = 89.95716611453932
SN.node[294].xCoor = 753.2411395521517
SN.node[294].yCoor = 90.77730030059087
SN.node[295].xCoor = 780.4301591702281
SN.node[295].yCoor = 114.40941028896052
SN.node[296].xCoor = 795.9475400110374
SN.node[296].yCoor = 90.08890294535661
SN.node[297].xCoor = 785.2315531214921
SN.node[297].yCoor = 90.10975753593341
SN.node[298].xCoor = 799.6633463272337
SN.node[298].yCoor = 104.39581565356372
SN.node[299].xCoor = 760.6084757994345
SN.node[299].yCoor = 102.35547476406202
SN.node[300].xCoor = 3.769419061094146
SN.node[300].yCoor = 133.4643304796681
SN.node[301].xCoor = 39.54908004702897
SN.node[301].yCoor = 125.18223569674136
SN.node[302].xCoor = 7.611759847003015
SN.node[302].yCoor = 153.5226195159621
SN.node[303].xCoor = 38.26196640051259
SN.node[303].yCoor = 139.0757350503292
SN.node[304].xCoor = 23.74068659717868
SN.node[304].yCoor = 154.26166888449592
SN.node[305].xCoor = 73.22706433616841
SN.node[305].yCoor = 120.28193131240384
SN.node[306].xCoor = 46.409158681938074
SN.node[306].yCoor = 155.85438609126123
SN.node[307].xCoor = 79.29508564213683
SN.node[307].yCoor = 151.68443332941646
SN.node[308].xCoor = 51.89385649642681
SN.node[308].yCoor = 144.73633226033675
SN.node[309].xCoor = 57.36888222386752
SN.node[309].yCoor = 133.75261558392887
SN.node[310].xCoor = 90.77594686223365
SN.node[310].yCoor = 133.64530353899704
SN.node[311].xCoor = 102.30893360924418
SN.node[311].yCoor = 150.6110166788306
SN.node[312].xCoor = 88.97393689755623
SN.node[312].yCoor = 158.18477385097518
SN.node[313].xCoor = 96.61184868913918
SN.node[313].yCoor = 143.96719262402084
SN.node[314].xCoor = 104.2639794868853
SN.node[314].yCoor = 143.82121869728292
SN.node[315].xCoor = 129.71891062110797
SN.node[315].yCoor = 122.10789483797998
SN.node[316].xCoor = 148.22049202636367
SN.node[316].yCoor = 122.4846146134204
SN.node[317].xCoor = 123.93642074924422
SN.node[317].yCoor = 144.00712228554397
SN.node[318].xCoor = 143.651457554554
SN.node[318].yCoor = 156.69444115662063
SN.node[319].xCoor = 132.77566437038098
SN.node[319].yCoor = 148.81440549999394
SN.node[320].xCoor = 169.45228137609223
SN.node[320].yCoor = 130.9068429574603
SN.node[321].xCoor = 179.81488455343867
SN.node[321].yCoor = 155.2582995798508
SN.node[322].xCoor = 176.31389136812243
SN.node[322].yCoor = 134.7132199593745
SN.node[323].xCoor = 184.43488189039212
SN.node[323].yCoor = 152.83840945095167
SN.node[324].xCoor = 182.14679372936766
SN.node[324].yCoor = 131.21847376306798
SN.node[325].xCoor = 232.12805444089855
SN.node[325].yCoor = 121.62023290480856
SN.node[326].xCoor = 211.93228740279778
SN.node[326].yCoor = 132.97989075951358
SN.node[327].xCoor = 207.03139371326318
SN.node[327].yCoor = 138.1943125272556
SN.node[328].xCoor = 200.17295007085667
SN.node[328].yCoor = 159.26088614443896
SN.node[329].xCoor = 234.0457925054303
SN.node[329].yCoor = 148.43976135742665
SN.node[330].xCoor = 260.76498381565983
SN.node[330].yCoor = 137.33541191765437
SN.node[331].xCoor = 278.4028766679076
SN.node[331].yCoor = 151.1483990936037
SN.node[332].xCoor = 249.0878942524635
SN.node[332].yCoor = 156.4573933459809
SN.node[333].xCoor = 257.5452578886354
SN.node[333].yCoor = 135.8629090358163
SN.node[334].xCoor = 256.55346655290725
SN.node[334].yCoor = 159.24645465578072
SN.node[335].xCoor = 285.9346130414993
SN.node[335].yCoor = 146.85681096940297
SN.node[336].xCoor = 303.5994198219462
SN.node[336].yCoor = 149.0095646901062
SN.node[337].xCoor = 291.18233372719226
SN.node[337].yCoor = 158.06595097562663
SN.node[338].xCoor = 294.15028305134746
SN.node[338].yCoor = 125.82960062776154
SN.node[339].xCoor = 286.55236190624055
SN.node[339].yCoor = 122.09576567935052
SN.node[340].xCoor = 356.07226848415155
SN.node[340].yCoor = 125.85480462991046
SN.node[341].xCoor = 337.34950317854606
SN.node[341].yCoor = 139.52951751603
SN.node[342].xCoor = 352.7066852256653
SN.node[342].yCoor = 120.89322893914111
SN.node[343].xCoor = 343.05987760281886
SN.node[343].yCoor = 134.47939553509343
SN.node[344].xCoor = 337.92248564939035
SN.node[344].yCoor = 136.58628738236942
SN.node[345].xCoor = 378.11196087987
SN.node[345].yCoor = 137.79588453180074
SN.node[346].xCoor = 395.1941924813363
SN.node[346].yCoor = 143.3767705952264
SN.node[347].xCoor = 394.7476755189289
SN.node[347].yCoor = 151.8153643992773
SN.node[348].xCoor = 398.1718875958975
SN.node[348].yCoor = 151.14576027768703
SN.node[349].xCoor = 395.5751767215197
SN.node[349].yCoor = 145.32893402821654
SN.node[350].xCoor = 410.32382248888894
SN.node[350].yCoor = 150.40724451224418
SN.node[351].xCoor = 407.8554288114367
SN.node[351].yCoor = 151.31060740094387
SN.node[352].xCoor = 426.83519810739585
SN.node[352].yCoor = 138.224522729346
SN.node[353].xCoor = 438.87935721174097
SN.node[353].yCoor = 132.99646502471992
SN.node[354].xCoor = 434.06465281339763
SN.node[354].yCoor = 159.50633269375453
SN.node[355].xCoor = 472.4972932831664
SN.node[355].yCoor = 149.1785483870811
SN.node[356].xCoor = 454.85237345899054
SN.node[356].yCoor = 143.45608619134845
SN.node[357].xCoor = 444.70280120034766
SN.node[357].yCoor = 142.64998532965038
SN.node[358].xCoor = 449.930762267855
SN.node[358].yCoor = 140.2469547097634
SN.node[359].xCoor = 468.27531610417174