[General]

# ==========================================================
# Always include the main Castalia.ini file
# ==========================================================

include ../Parameters/Castalia.ini

sim-time-limit = 15s

#include wsn_experiment.ini

SN.wirelessChannel.onlyStaticNodes = true
SN.wirelessChannel.sigma = 0
SN.wirelessChannel.bidirectionalSigma = 0
# Choose a radio and set the Tx power to a low value so
# that node's mobility has a better effect on connectivity
SN.node[*].Communication.Radio.RadioParametersFile = "../Parameters/Radio/CC2420.txt"
SN.node[*].Communication.Radio.TxOutputPower = "-5dBm"
SN.wirelessChannel.pathLossExponent = 2.4
SN.wirelessChannel.PLd0 = 51.55056 # 40m -> PLd0 = (-5dBm - max(-95dBm, -100dBm)) - 10 * pathLossExponent * log(40m)
SN.node[*].Communication.Radio.mode = "IDEAL"
SN.node[*].Communication.Radio.collisionModel = 0

#SN.node[*].Communication.MACProtocolName = "TunableMAC"
#SN.node[*].Communication.MAC.dutyCycle = 1.0
#SN.node[*].Communication.MAC.randomTxOffset = 0
#SN.node[*].Communication.MAC.backoffType = 2

#SN.node[*].Communication.RoutingProtocolName = "GreedyRouting"
# be carefull, turning debig info on may generate a lot of trace data
SN.node[*].Communication.Routing.collectTraceInfo = true

SN.node[*].ApplicationName = "SimplePairApplication"
SN.node[*].Application.collectTraceInfo = false

#SN.node[0].Application.packet_rate = 0.2
#SN.node[0].Application.maxData = 100
#SN.node[0].Application.startupDelay = 10
#SN.node[0].Application.nextRecipient = "2"


SN.node[*].Communication.RoutingProtocolName = "GreedyRouting"
SN.node[*].Communication.MACProtocolName = "TunableMAC"
SN.node[*].Communication.MAC.dutyCycle = 1.0
SN.node[*].Communication.MAC.randomTxOffset = 0
SN.node[*].Communication.MAC.backoffType = 2
SN.numNodes = 500
SN.field_x = 400
SN.field_y = 400
SN.node[0].xCoor = 2.2807425883855847
SN.node[0].yCoor = 386.7119411554246
SN.node[1].xCoor = 20.518859633718648
SN.node[1].yCoor = 398.46577354965683
SN.node[2].xCoor = 48.260901797668936
SN.node[2].yCoor = 382.97644007194486
SN.node[3].xCoor = 66.20693536566576
SN.node[3].yCoor = 396.33919529920576
SN.node[4].xCoor = 95.53188556409913
SN.node[4].yCoor = 394.4179905990775
SN.node[5].xCoor = 114.85815585280601
SN.node[5].yCoor = 387.9844585099471
SN.node[6].xCoor = 139.3853381054188
SN.node[6].yCoor = 392.5870084770021
SN.node[7].xCoor = 150.3486971155365
SN.node[7].yCoor = 383.54596301971196
SN.node[8].xCoor = 165.75631623071192
SN.node[8].yCoor = 383.3859912079892
SN.node[9].xCoor = 197.68006900202707
SN.node[9].yCoor = 387.08760225358685
SN.node[10].xCoor = 218.6732772636831
SN.node[10].yCoor = 396.2315727321231
SN.node[11].xCoor = 238.22101281390746
SN.node[11].yCoor = 383.03150746408824
SN.node[12].xCoor = 250.6195166110038
SN.node[12].yCoor = 381.099199657924
SN.node[13].xCoor = 269.6314711475285
SN.node[13].yCoor = 393.38488813207357
SN.node[14].xCoor = 283.9846510434833
SN.node[14].yCoor = 380.62425548219954
SN.node[15].xCoor = 317.38802629357065
SN.node[15].yCoor = 387.51607353047785
SN.node[16].xCoor = 337.7761104530403
SN.node[16].yCoor = 396.62633220184006
SN.node[17].xCoor = 343.2373711204576
SN.node[17].yCoor = 399.83863829416424
SN.node[18].xCoor = 372.6805310577418
SN.node[18].yCoor = 398.69828627102453
SN.node[19].xCoor = 392.39105629870954
SN.node[19].yCoor = 388.79101275452234
SN.node[20].xCoor = 11.146973655983539
SN.node[20].yCoor = 372.5455513808383
SN.node[21].xCoor = 37.46011181304111
SN.node[21].yCoor = 375.0072378201148
SN.node[22].xCoor = 57.322915793281624
SN.node[22].yCoor = 370.49615653615535
SN.node[23].xCoor = 73.9687631118089
SN.node[23].yCoor = 366.2138998700814
SN.node[24].xCoor = 87.5434526087088
SN.node[24].yCoor = 377.9828016918848
SN.node[25].xCoor = 103.28363972065662
SN.node[25].yCoor = 366.69639435651607
SN.node[26].xCoor = 130.8401848597312
SN.node[26].yCoor = 378.73695145263764
SN.node[27].xCoor = 150.09239201433343
SN.node[27].yCoor = 366.9903903032678
SN.node[28].xCoor = 160.7091233520936
SN.node[28].yCoor = 369.34264921289326
SN.node[29].xCoor = 182.67833082179928
SN.node[29].yCoor = 365.61210483689837
SN.node[30].xCoor = 219.6984870674414
SN.node[30].yCoor = 366.08135889451705
SN.node[31].xCoor = 230.0412317894729
SN.node[31].yCoor = 377.9736858696833
SN.node[32].xCoor = 256.7171880157332
SN.node[32].yCoor = 372.46503655612645
SN.node[33].xCoor = 272.3982482190662
SN.node[33].yCoor = 365.63181506375855
SN.node[34].xCoor = 287.288037055755
SN.node[34].yCoor = 377.38166920692333
SN.node[35].xCoor = 319.5293767269307
SN.node[35].yCoor = 363.6034417950704
SN.node[36].xCoor = 335.20783623015905
SN.node[36].yCoor = 365.62639780081236
SN.node[37].xCoor = 349.1496861182753
SN.node[37].yCoor = 367.7397301456534
SN.node[38].xCoor = 360.7513686850257
SN.node[38].yCoor = 376.75957028921795
SN.node[39].xCoor = 381.48230773117484
SN.node[39].yCoor = 365.225961633506
SN.node[40].xCoor = 7.8505700642312215
SN.node[40].yCoor = 353.02591009482086
SN.node[41].xCoor = 32.06724439209502
SN.node[41].yCoor = 358.35055431246195
SN.node[42].xCoor = 54.486367070696346
SN.node[42].yCoor = 357.31585381586507
SN.node[43].xCoor = 72.76822102439576
SN.node[43].yCoor = 359.7202479244993
SN.node[44].xCoor = 99.2286144331166
SN.node[44].yCoor = 348.32927139018625
SN.node[45].xCoor = 102.52765056291749
SN.node[45].yCoor = 345.54022530354706
SN.node[46].xCoor = 137.06043897700158
SN.node[46].yCoor = 353.20580732714916
SN.node[47].xCoor = 145.09973940339023
SN.node[47].yCoor = 358.87116341907426
SN.node[48].xCoor = 175.19399163003024
SN.node[48].yCoor = 344.68428031440317
SN.node[49].xCoor = 186.10315240826137
SN.node[49].yCoor = 358.5267055709123
SN.node[50].xCoor = 203.78223760453844
SN.node[50].yCoor = 350.47489959576797
SN.node[51].xCoor = 237.23589765371273
SN.node[51].yCoor = 340.5331835767289
SN.node[52].xCoor = 240.96862329822372
SN.node[52].yCoor = 350.7500920174083
SN.node[53].xCoor = 268.6536170004094
SN.node[53].yCoor = 358.63132798814723
SN.node[54].xCoor = 281.6252477540746
SN.node[54].yCoor = 345.0978261467243
SN.node[55].xCoor = 305.4305789024353
SN.node[55].yCoor = 351.15381704275666
SN.node[56].xCoor = 324.9276662721145
SN.node[56].yCoor = 340.23830817327223
SN.node[57].xCoor = 351.6246251320423
SN.node[57].yCoor = 340.1674857006497
SN.node[58].xCoor = 368.88810147140947
SN.node[58].yCoor = 341.79445620318756
SN.node[59].xCoor = 384.7836941912358
SN.node[59].yCoor = 352.2858955380733
SN.node[60].xCoor = 13.424395031862373
SN.node[60].yCoor = 335.87050935303915
SN.node[61].xCoor = 20.91376051496027
SN.node[61].yCoor = 335.12525322433146
SN.node[62].xCoor = 50.02688572900537
SN.node[62].yCoor = 339.20659251255955
SN.node[63].xCoor = 60.412551199130384
SN.node[63].yCoor = 321.86814089223117
SN.node[64].xCoor = 85.11649762956088
SN.node[64].yCoor = 326.18116933605864
SN.node[65].xCoor = 116.13841629551258
SN.node[65].yCoor = 331.83606790446674
SN.node[66].xCoor = 122.50645759541486
SN.node[66].yCoor = 327.46476090965064
SN.node[67].xCoor = 143.5865152775401
SN.node[67].yCoor = 332.09489041813544
SN.node[68].xCoor = 160.7685633984714
SN.node[68].yCoor = 320.3110222881086
SN.node[69].xCoor = 189.48263756793787
SN.node[69].yCoor = 332.220425838744
SN.node[70].xCoor = 208.5027110892264
SN.node[70].yCoor = 333.76655163307464
SN.node[71].xCoor = 238.39911463737693
SN.node[71].yCoor = 327.5574946514846
SN.node[72].xCoor = 256.88821343346285
SN.node[72].yCoor = 334.9200123383314
SN.node[73].xCoor = 260.5554386666421
SN.node[73].yCoor = 323.24901089307514
SN.node[74].xCoor = 290.66077521744876
SN.node[74].yCoor = 330.0103544128015
SN.node[75].xCoor = 306.2964454951296
SN.node[75].yCoor = 325.31622059916066
SN.node[76].xCoor = 330.1411949708185
SN.node[76].yCoor = 326.23288605574703
SN.node[77].xCoor = 349.3261345571967
SN.node[77].yCoor = 331.58014444067146
SN.node[78].xCoor = 378.207688122321
SN.node[78].yCoor = 338.7690994809178
SN.node[79].xCoor = 396.347274083026
SN.node[79].yCoor = 323.2389290751426
SN.node[80].xCoor = 7.408305076423578
SN.node[80].yCoor = 319.84200596810877
SN.node[81].xCoor = 24.0026245703459
SN.node[81].yCoor = 310.90395146062406
SN.node[82].xCoor = 45.92986542809873
SN.node[82].yCoor = 310.2247915272045
SN.node[83].xCoor = 66.59711564819405
SN.node[83].yCoor = 307.58401500160755
SN.node[84].xCoor = 94.84397722539177
SN.node[84].yCoor = 302.9604941663896
SN.node[85].xCoor = 104.11865505220142
SN.node[85].yCoor = 300.4853085058029
SN.node[86].xCoor = 138.8458438331625
SN.node[86].yCoor = 301.06701359475915
SN.node[87].xCoor = 159.09578312888166
SN.node[87].yCoor = 316.28202750766553
SN.node[88].xCoor = 164.23043500256279
SN.node[88].yCoor = 303.6463122171999
SN.node[89].xCoor = 198.84020008022594
SN.node[89].yCoor = 302.20927637859535
SN.node[90].xCoor = 217.77833208532272
SN.node[90].yCoor = 302.78868941880546
SN.node[91].xCoor = 225.90298032256064
SN.node[91].yCoor = 318.0122537683782
SN.node[92].xCoor = 247.9987765377411
SN.node[92].yCoor = 313.2611747580109
SN.node[93].xCoor = 261.4143702659507
SN.node[93].yCoor = 301.3236286665779
SN.node[94].xCoor = 284.8391136501115
SN.node[94].yCoor = 300.7004205000834
SN.node[95].xCoor = 317.8978986760776
SN.node[95].yCoor = 312.04370628861324
SN.node[96].xCoor = 334.1690950778692
SN.node[96].yCoor = 313.7706160207723
SN.node[97].xCoor = 346.32041765287113
SN.node[97].yCoor = 309.6388909616989
SN.node[98].xCoor = 360.85647543407003
SN.node[98].yCoor = 318.70720720412766
SN.node[99].xCoor = 393.5892408692084
SN.node[99].yCoor = 311.015381572561
SN.node[100].xCoor = 12.669425392855702
SN.node[100].yCoor = 293.75379291739085
SN.node[101].xCoor = 21.765679354520046
SN.node[101].yCoor = 291.7571130545774
SN.node[102].xCoor = 56.019124622400696
SN.node[102].yCoor = 284.85781279035643
SN.node[103].xCoor = 72.05587351810608
SN.node[103].yCoor = 285.1420047674887
SN.node[104].xCoor = 83.13753957563219
SN.node[104].yCoor = 299.69475775617843
SN.node[105].xCoor = 110.32973206733888
SN.node[105].yCoor = 295.6270939815187
SN.node[106].xCoor = 131.57044680689071
SN.node[106].yCoor = 284.9179900596765
SN.node[107].xCoor = 141.64357563132063
SN.node[107].yCoor = 295.5588248311992
SN.node[108].xCoor = 179.54306748989987
SN.node[108].yCoor = 286.9625329116219
SN.node[109].xCoor = 198.0823056832168
SN.node[109].yCoor = 285.2563250107213
SN.node[110].xCoor = 214.17085081035998
SN.node[110].yCoor = 293.96938725508016
SN.node[111].xCoor = 235.5616505486622
SN.node[111].yCoor = 284.4059773051945
SN.node[112].xCoor = 252.50952143027635
SN.node[112].yCoor = 280.7740780173097
SN.node[113].xCoor = 274.77344861568565
SN.node[113].yCoor = 295.31965241487194
SN.node[114].xCoor = 283.0669123549504
SN.node[114].yCoor = 282.3502637372892
SN.node[115].xCoor = 306.74102704430163
SN.node[115].yCoor = 294.46150565693085
SN.node[116].xCoor = 321.7768337882706
SN.node[116].yCoor = 294.25440439765066
SN.node[117].xCoor = 352.03015189857376
SN.node[117].yCoor = 289.0650147445697
SN.node[118].xCoor = 366.4627895020579
SN.node[118].yCoor = 291.5076205027393
SN.node[119].xCoor = 381.4569925634461
SN.node[119].yCoor = 287.155463688436
SN.node[120].xCoor = 14.474691495303858
SN.node[120].yCoor = 261.05637401905744
SN.node[121].xCoor = 38.11825861586314
SN.node[121].yCoor = 262.0070097516532
SN.node[122].xCoor = 54.133205024706434
SN.node[122].yCoor = 263.38201039320904
SN.node[123].xCoor = 79.5104763995395
SN.node[123].yCoor = 275.3719905894717
SN.node[124].xCoor = 86.18590339071454
SN.node[124].yCoor = 265.1740343508236
SN.node[125].xCoor = 109.98443592054338
SN.node[125].yCoor = 273.2911313874649
SN.node[126].xCoor = 138.91653094853532
SN.node[126].yCoor = 276.06470267706567
SN.node[127].xCoor = 156.6272242595608
SN.node[127].yCoor = 279.7619596011711
SN.node[128].xCoor = 164.87713560879422
SN.node[128].yCoor = 267.93909045370754
SN.node[129].xCoor = 198.1675587787792
SN.node[129].yCoor = 271.79012268327153
SN.node[130].xCoor = 201.72730349799303
SN.node[130].yCoor = 279.91318062486073
SN.node[131].xCoor = 233.97043523974742
SN.node[131].yCoor = 264.01618917558187
SN.node[132].xCoor = 252.9390395188699
SN.node[132].yCoor = 272.5024927527379
SN.node[133].xCoor = 268.2122697778994
SN.node[133].yCoor = 279.2167544507398
SN.node[134].xCoor = 297.47685374678207
SN.node[134].yCoor = 265.30590206445237
SN.node[135].xCoor = 316.14343634005064
SN.node[135].yCoor = 272.366332211564
SN.node[136].xCoor = 326.0733514398334
SN.node[136].yCoor = 273.36316485722324
SN.node[137].xCoor = 356.23567524639054
SN.node[137].yCoor = 271.39055268295755
SN.node[138].xCoor = 362.72030960795803
SN.node[138].yCoor = 277.6744732598387
SN.node[139].xCoor = 387.3662397580142
SN.node[139].yCoor = 279.02901960069033
SN.node[140].xCoor = 2.7515305041718063
SN.node[140].yCoor = 246.07581947552734
SN.node[141].xCoor = 38.81448617526523
SN.node[141].yCoor = 258.9633099854632
SN.node[142].xCoor = 45.06516665205585
SN.node[142].yCoor = 242.6899294385937
SN.node[143].xCoor = 64.69677836625345
SN.node[143].yCoor = 256.9052071595889
SN.node[144].xCoor = 84.82066231396598
SN.node[144].yCoor = 252.08991963088724
SN.node[145].xCoor = 107.46552993594906
SN.node[145].yCoor = 256.500818686765
SN.node[146].xCoor = 124.33817584278337
SN.node[146].yCoor = 245.79795918803575
SN.node[147].xCoor = 145.63018401272535
SN.node[147].yCoor = 259.5735020891042
SN.node[148].xCoor = 177.5676056734187
SN.node[148].yCoor = 257.2910160434293
SN.node[149].xCoor = 182.93581572104293
SN.node[149].yCoor = 247.93519581218484
SN.node[150].xCoor = 218.18997365404365
SN.node[150].yCoor = 250.23021188501366
SN.node[151].xCoor = 224.01235255379342
SN.node[151].yCoor = 246.21424813172956
SN.node[152].xCoor = 240.1113784425561
SN.node[152].yCoor = 258.6647313552243
SN.node[153].xCoor = 277.0454018977865
SN.node[153].yCoor = 255.36696086911286
SN.node[154].xCoor = 282.67006718646087
SN.node[154].yCoor = 248.52894001386755
SN.node[155].xCoor = 316.60851925028516
SN.node[155].yCoor = 248.3017484760176
SN.node[156].xCoor = 337.3030713471273
SN.node[156].yCoor = 242.20634291483898
SN.node[157].xCoor = 342.84065762891976
SN.node[157].yCoor = 259.3797916617855
SN.node[158].xCoor = 370.93988754905706
SN.node[158].yCoor = 241.22396063735246
SN.node[159].xCoor = 388.17320845843716
SN.node[159].yCoor = 249.6859262283649
SN.node[160].xCoor = 14.126084692675715
SN.node[160].yCoor = 232.9665284401749
SN.node[161].xCoor = 29.32274066954227
SN.node[161].yCoor = 239.41477770941484
SN.node[162].xCoor = 58.54539953208253
SN.node[162].yCoor = 220.30957254834
SN.node[163].xCoor = 72.87694540102409
SN.node[163].yCoor = 226.71705007091617
SN.node[164].xCoor = 89.04267416253651
SN.node[164].yCoor = 223.71315948309484
SN.node[165].xCoor = 100.60056668758787
SN.node[165].yCoor = 224.9328672352718
SN.node[166].xCoor = 121.75871411983859
SN.node[166].yCoor = 226.4280857508872
SN.node[167].xCoor = 140.96909867178115
SN.node[167].yCoor = 222.9937255961251
SN.node[168].xCoor = 163.33725538669947
SN.node[168].yCoor = 236.57841000043828
SN.node[169].xCoor = 181.3101245832301
SN.node[169].yCoor = 220.09097115769598
SN.node[170].xCoor = 203.68586962518003
SN.node[170].yCoor = 232.96588454121644
SN.node[171].xCoor = 237.92592458213028
SN.node[171].yCoor = 235.4873853017801
SN.node[172].xCoor = 246.5742205872416
SN.node[172].yCoor = 230.19746100269523
SN.node[173].xCoor = 276.1993845760778
SN.node[173].yCoor = 223.69357942097557
SN.node[174].xCoor = 291.83739074121803
SN.node[174].yCoor = 228.5647312952259
SN.node[175].xCoor = 307.798018259973
SN.node[175].yCoor = 238.59593807912216
SN.node[176].xCoor = 322.38674736255626
SN.node[176].yCoor = 239.586904591194
SN.node[177].xCoor = 353.2464629541936
SN.node[177].yCoor = 222.16378032651835
SN.node[178].xCoor = 365.9978936438057
SN.node[178].yCoor = 231.70096393895778
SN.node[179].xCoor = 392.7178633759431
SN.node[179].yCoor = 223.05168713716833
SN.node[180].xCoor = 19.093084912916638
SN.node[180].yCoor = 204.3669691389128
SN.node[181].xCoor = 23.372530241025572
SN.node[181].yCoor = 205.39112221597907
SN.node[182].xCoor = 43.492070637984554
SN.node[182].yCoor = 213.04417154619387
SN.node[183].xCoor = 60.1661314467816
SN.node[183].yCoor = 210.93793335637164
SN.node[184].xCoor = 81.04047390902258
SN.node[184].yCoor = 202.41651924724
SN.node[185].xCoor = 118.77397476928763
SN.node[185].yCoor = 201.18270012822296
SN.node[186].xCoor = 133.26829990031172
SN.node[186].yCoor = 204.11147430284868
SN.node[187].xCoor = 152.52148988624563
SN.node[187].yCoor = 202.97621965271287
SN.node[188].xCoor = 168.6758371419303
SN.node[188].yCoor = 210.2784890595328
SN.node[189].xCoor = 193.5379657207353
SN.node[189].yCoor = 206.03281147177026
SN.node[190].xCoor = 210.53543926246238
SN.node[190].yCoor = 210.5983915090852
SN.node[191].xCoor = 221.06610029589743
SN.node[191].yCoor = 204.90793209760184
SN.node[192].xCoor = 245.57229733230804
SN.node[192].yCoor = 215.91552062146764
SN.node[193].xCoor = 261.409678145251
SN.node[193].yCoor = 203.76703047395478
SN.node[194].xCoor = 294.39596629912023
SN.node[194].yCoor = 212.2608746138955
SN.node[195].xCoor = 313.28368902624584
SN.node[195].yCoor = 214.30512664558574
SN.node[196].xCoor = 325.09029837116424
SN.node[196].yCoor = 208.95948306783305
SN.node[197].xCoor = 344.7521735162905
SN.node[197].yCoor = 204.9880372018487
SN.node[198].xCoor = 370.41593554371514
SN.node[198].yCoor = 211.64508429292655
SN.node[199].xCoor = 388.8473422872673
SN.node[199].yCoor = 210.56400915248815
SN.node[200].xCoor = 5.720588563262847
SN.node[200].yCoor = 186.420840882258
SN.node[201].xCoor = 37.726996956591876
SN.node[201].yCoor = 183.7651463691791
SN.node[202].xCoor = 43.54919611729751
SN.node[202].yCoor = 192.67168763370782
SN.node[203].xCoor = 68.64631947703364
SN.node[203].yCoor = 194.8241945279042
SN.node[204].xCoor = 81.12086354740339
SN.node[204].yCoor = 195.513722052248
SN.node[205].xCoor = 101.18692668202581
SN.node[205].yCoor = 185.78466619062198
SN.node[206].xCoor = 130.8644268479646
SN.node[206].yCoor = 196.6604618258066
SN.node[207].xCoor = 150.40086479433398
SN.node[207].yCoor = 199.78139080386742
SN.node[208].xCoor = 167.02712808640408
SN.node[208].yCoor = 187.3893302328406
SN.node[209].xCoor = 197.75759129568164
SN.node[209].yCoor = 184.08144082858072
SN.node[210].xCoor = 219.72050906428353
SN.node[210].yCoor = 194.00696552729167
SN.node[211].xCoor = 223.51549532854406
SN.node[211].yCoor = 193.14277550829394
SN.node[212].xCoor = 241.36520069290572
SN.node[212].yCoor = 191.51721857695617
SN.node[213].xCoor = 268.1152533729601
SN.node[213].yCoor = 195.14938294930613
SN.node[214].xCoor = 295.49509925954203
SN.node[214].yCoor = 187.113816944895
SN.node[215].xCoor = 314.99396531694737
SN.node[215].yCoor = 194.4557932988773
SN.node[216].xCoor = 326.0670952922743
SN.node[216].yCoor = 184.92795148712207
SN.node[217].xCoor = 350.72787622070643
SN.node[217].yCoor = 193.91977902164976
SN.node[218].xCoor = 362.54379070843623
SN.node[218].yCoor = 191.5129109253772
SN.node[219].xCoor = 391.3866729622118
SN.node[219].yCoor = 180.57748122970096
SN.node[220].xCoor = 11.262272945365686
SN.node[220].yCoor = 171.8359188502418
SN.node[221].xCoor = 26.499189096824058
SN.node[221].yCoor = 173.68004684613345
SN.node[222].xCoor = 48.980432854593516
SN.node[222].yCoor = 176.9001913214303
SN.node[223].xCoor = 73.43459359192491
SN.node[223].yCoor = 179.9433052259294
SN.node[224].xCoor = 97.23601931319959
SN.node[224].yCoor = 163.48810425172272
SN.node[225].xCoor = 107.62379267668746
SN.node[225].yCoor = 176.76127406920835
SN.node[226].xCoor = 134.73842133008264
SN.node[226].yCoor = 160.51710931087757
SN.node[227].xCoor = 147.8134320247645
SN.node[227].yCoor = 179.80129804196542
SN.node[228].xCoor = 161.63355243026353
SN.node[228].yCoor = 162.25711988185796
SN.node[229].xCoor = 180.02597164135668
SN.node[229].yCoor = 168.41832030104882
SN.node[230].xCoor = 214.18620134882448
SN.node[230].yCoor = 179.35777647008814
SN.node[231].xCoor = 236.88666937586714
SN.node[231].yCoor = 175.96150369902062
SN.node[232].xCoor = 242.69134569631746
SN.node[232].yCoor = 174.58601798947316
SN.node[233].xCoor = 266.082686868243
SN.node[233].yCoor = 168.8297164671685
SN.node[234].xCoor = 282.19985518146063
SN.node[234].yCoor = 170.66321649262136
SN.node[235].xCoor = 312.86895696210337
SN.node[235].yCoor = 167.47739907111523
SN.node[236].xCoor = 325.80519604449614
SN.node[236].yCoor = 168.043228122402
SN.node[237].xCoor = 352.882148244213
SN.node[237].yCoor = 172.58344737472652
SN.node[238].xCoor = 362.3800882091379
SN.node[238].yCoor = 173.065052873794
SN.node[239].xCoor = 382.5744030661511
SN.node[239].yCoor = 176.46755008706944
SN.node[240].xCoor = 6.302365414008331
SN.node[240].yCoor = 143.61919240744862
SN.node[241].xCoor = 37.711350649381
SN.node[241].yCoor = 155.54647945130912
SN.node[242].xCoor = 59.405950930054104
SN.node[242].yCoor = 154.15973088666954
SN.node[243].xCoor = 60.881437730066615
SN.node[243].yCoor = 151.54216957667737
SN.node[244].xCoor = 95.53429027528416
SN.node[244].yCoor = 151.05515997252385
SN.node[245].xCoor = 109.2741079303079
SN.node[245].yCoor = 145.18469970325964
SN.node[246].xCoor = 124.06479978624661
SN.node[246].yCoor = 152.40759860110214
SN.node[247].xCoor = 154.90113721352276
SN.node[247].yCoor = 145.27020739079506
SN.node[248].xCoor = 168.80125064054158
SN.node[248].yCoor = 152.16953584142564
SN.node[249].xCoor = 191.9819727067371
SN.node[249].yCoor = 141.45116992477466
SN.node[250].xCoor = 213.49627859703187
SN.node[250].yCoor = 145.99725743703175
SN.node[251].xCoor = 222.09856354946777
SN.node[251].yCoor = 143.25693947750688
SN.node[252].xCoor = 251.6779158074336
SN.node[252].yCoor = 144.04958020139117
SN.node[253].xCoor = 277.5086324786352
SN.node[253].yCoor = 142.1767571225178
SN.node[254].xCoor = 299.15430825415615
SN.node[254].yCoor = 140.85162394043886
SN.node[255].xCoor = 300.0200317372513
SN.node[255].yCoor = 155.12684061624844
SN.node[256].xCoor = 335.41469563835955
SN.node[256].yCoor = 147.2198167779877
SN.node[257].xCoor = 358.95917870636475
SN.node[257].yCoor = 155.12861982893338
SN.node[258].xCoor = 363.19912229937813
SN.node[258].yCoor = 140.86105799070032
SN.node[259].xCoor = 381.8758075074533
SN.node[259].yCoor = 147.60536308257218
SN.node[260].xCoor = 12.600481891533516
SN.node[260].yCoor = 126.8467990901039
SN.node[261].xCoor = 34.32492359937933
SN.node[261].yCoor = 132.43509723815447
SN.node[262].xCoor = 50.676860493674276
SN.node[262].yCoor = 132.22700427903106
SN.node[263].xCoor = 73.36859327528873
SN.node[263].yCoor = 124.55129025484865
SN.node[264].xCoor = 94.46623955827626
SN.node[264].yCoor = 120.29398682445691
SN.node[265].xCoor = 109.24892850642497
SN.node[265].yCoor = 133.49894498348306
SN.node[266].xCoor = 136.9210075419903
SN.node[266].yCoor = 128.34246412721342
SN.node[267].xCoor = 144.59427952024433
SN.node[267].yCoor = 122.56048032242506
SN.node[268].xCoor = 162.88938397741794
SN.node[268].yCoor = 124.23930527094171
SN.node[269].xCoor = 186.81667619964196
SN.node[269].yCoor = 121.15711802586986
SN.node[270].xCoor = 218.31906244904565
SN.node[270].yCoor = 129.95641805642924
SN.node[271].xCoor = 236.19334160321608
SN.node[271].yCoor = 135.23295179192343
SN.node[272].xCoor = 255.82819499735132
SN.node[272].yCoor = 134.68872136888388
SN.node[273].xCoor = 275.2107434474998
SN.node[273].yCoor = 132.54284946533232
SN.node[274].xCoor = 290.45705997180323
SN.node[274].yCoor = 123.468784580472
SN.node[275].xCoor = 315.78517315698605
SN.node[275].yCoor = 139.2593560890823
SN.node[276].xCoor = 331.17045717658283
SN.node[276].yCoor = 128.85045522752318
SN.node[277].xCoor = 353.0300179077663
SN.node[277].yCoor = 132.45772483623426
SN.node[278].xCoor = 366.7092714251309
SN.node[278].yCoor = 131.7553034060091
SN.node[279].xCoor = 397.7744049985149
SN.node[279].yCoor = 122.60311284061635
SN.node[280].xCoor = 16.549508345371493
SN.node[280].yCoor = 101.01750848118292
SN.node[281].xCoor = 33.117316778179365
SN.node[281].yCoor = 107.58632198822613
SN.node[282].xCoor = 49.48272337171675
SN.node[282].yCoor = 101.54122841907105
SN.node[283].xCoor = 77.08227000997175
SN.node[283].yCoor = 110.81795327453648
SN.node[284].xCoor = 85.07570414201982
SN.node[284].yCoor = 104.63033664557327
SN.node[285].xCoor = 102.99715250593029
SN.node[285].yCoor = 118.94627374905082
SN.node[286].xCoor = 127.51302818127394
SN.node[286].yCoor = 117.8843064056723
SN.node[287].xCoor = 151.1923362954027
SN.node[287].yCoor = 116.58376358673354
SN.node[288].xCoor = 170.5058475723634
SN.node[288].yCoor = 116.60046051648129
SN.node[289].xCoor = 182.11526241407842
SN.node[289].yCoor = 111.54454358740094
SN.node[290].xCoor = 214.09023011709138
SN.node[290].yCoor = 110.15093712669312
SN.node[291].xCoor = 229.87101150930653
SN.node[291].yCoor = 108.1055583651883
SN.node[292].xCoor = 240.49220754256288
SN.node[292].yCoor = 102.15247519478618
SN.node[293].xCoor = 277.3142672057969
SN.node[293].yCoor = 106.10618044599158
SN.node[294].xCoor = 287.15715310458967
SN.node[294].yCoor = 100.45153039818126
SN.node[295].xCoor = 316.5328948846924
SN.node[295].yCoor = 115.67402161671595
SN.node[296].xCoor = 334.0184156450607
SN.node[296].yCoor = 104.08989835383215
SN.node[297].xCoor = 346.28277349813675
SN.node[297].yCoor = 110.22169373189718
SN.node[298].xCoor = 365.96268151381616
SN.node[298].yCoor = 118.13503660936715
SN.node[299].xCoor = 389.0908089757737
SN.node[299].yCoor = 100.83617298285355
SN.node[300].xCoor = 18.928660030429217
SN.node[300].yCoor = 88.77326115573743
SN.node[301].xCoor = 38.87515969510639
SN.node[301].yCoor = 89.16286445920923
SN.node[302].xCoor = 50.401010565529134
SN.node[302].yCoor = 90.78363771106223
SN.node[303].xCoor = 76.6344866170389
SN.node[303].yCoor = 84.98776283096998
SN.node[304].xCoor = 86.30256801224989
SN.node[304].yCoor = 90.43793570118845
SN.node[305].xCoor = 105.39106340749093
SN.node[305].yCoor = 94.38624509832528
SN.node[306].xCoor = 128.2713226258123
SN.node[306].yCoor = 82.86724147527849
SN.node[307].xCoor = 154.66828633024068
SN.node[307].yCoor = 94.90894289570775
SN.node[308].xCoor = 167.5663033366892
SN.node[308].yCoor = 96.20878946054341
SN.node[309].xCoor = 188.01212742864672
SN.node[309].yCoor = 82.068652353451
SN.node[310].xCoor = 201.26599922746968
SN.node[310].yCoor = 87.55191202135154
SN.node[311].xCoor = 229.24484217399373
SN.node[311].yCoor = 95.06163198330722
SN.node[312].xCoor = 257.2378931721968
SN.node[312].yCoor = 84.46636654206839
SN.node[313].xCoor = 271.4483902196529
SN.node[313].yCoor = 94.11959049545032
SN.node[314].xCoor = 298.11011512403394
SN.node[314].yCoor = 98.85811249704932
SN.node[315].xCoor = 303.2591653579632
SN.node[315].yCoor = 84.77917276054512
SN.node[316].xCoor = 329.9959947932883
SN.node[316].yCoor = 98.74127223305334
SN.node[317].xCoor = 341.67688726298763
SN.node[317].yCoor = 99.80118032619833
SN.node[318].xCoor = 378.72035027534497
SN.node[318].yCoor = 85.46408576025271
SN.node[319].xCoor = 386.26788736891075
SN.node[319].yCoor = 85.85212147145353
SN.node[320].xCoor = 8.012516475976522
SN.node[320].yCoor = 74.60390455341945
SN.node[321].xCoor = 28.73706207665784
SN.node[321].yCoor = 74.42862005111203
SN.node[322].xCoor = 50.72758305801612
SN.node[322].yCoor = 72.03452379541034
SN.node[323].xCoor = 66.11146085983698
SN.node[323].yCoor = 75.8825890999841
SN.node[324].xCoor = 96.1857262998929
SN.node[324].yCoor = 65.76242237517312
SN.node[325].xCoor = 104.76815778805742
SN.node[325].yCoor = 67.68636963637937
SN.node[326].xCoor = 132.73255886833687
SN.node[326].yCoor = 63.04375190586978
SN.node[327].xCoor = 143.31485239043676
SN.node[327].yCoor = 79.82226924291052
SN.node[328].xCoor = 170.75279285364857
SN.node[328].yCoor = 63.643522721944635
SN.node[329].xCoor = 194.1918172062697
SN.node[329].yCoor = 64.63902936253038
SN.node[330].xCoor = 205.99543041765287
SN.node[330].yCoor = 61.92661667703294
SN.node[331].xCoor = 228.0479048246463
SN.node[331].yCoor = 68.16852639840556
SN.node[332].xCoor = 246.7739823922287
SN.node[332].yCoor = 78.65268635311583
SN.node[333].xCoor = 277.14873582188767
SN.node[333].yCoor = 76.59830479817492
SN.node[334].xCoor = 299.7064296283402
SN.node[334].yCoor = 70.12341901033352
SN.node[335].xCoor = 302.05128291430105
SN.node[335].yCoor = 61.19834794461286
SN.node[336].xCoor = 328.8707169753274
SN.node[336].yCoor = 78.21490191763252
SN.node[337].xCoor = 350.732159339418
SN.node[337].yCoor = 61.910287164706915
SN.node[338].xCoor = 365.56690907781547
SN.node[338].yCoor = 66.8921821941974
SN.node[339].xCoor = 393.2598478011887
SN.node[339].yCoor = 70.41106592507333
SN.node[340].xCoor = 5.863571664728884
SN.node[340].yCoor = 49.20311038796564
SN.node[341].xCoor = 29.077222865926622
SN.node[341].yCoor = 53.33904642302349
SN.node[342].xCoor = 48.17084200214913
SN.node[342].yCoor = 45.50347006999351
SN.node[343].xCoor = 73.32840952371832
SN.node[343].yCoor = 49.27289690182829
SN.node[344].xCoor = 98.76809377747564
SN.node[344].yCoor = 48.95873488487263
SN.node[345].xCoor = 110.78659103605956
SN.node[345].yCoor = 58.83455742098943
SN.node[346].xCoor = 134.47218164292343
SN.node[346].yCoor = 54.68843914182736
SN.node[347].xCoor = 144.61237742743006
SN.node[347].yCoor = 55.70732295689271
SN.node[348].xCoor = 169.09587731300184
SN.node[348].yCoor = 55.245161045597115
SN.node[349].xCoor = 184.90393290021217
SN.node[349].yCoor = 53.501033322099374
SN.node[350].xCoor = 208.91394767578356
SN.node[350].yCoor = 42.24036868766109
SN.node[351].xCoor = 230.45588243645176
SN.node[351].yCoor = 50.28414448878459
SN.node[352].xCoor = 256.45326187492736
SN.node[352].yCoor = 41.57358513885305
SN.node[353].xCoor = 265.3799505090655
SN.node[353].yCoor = 58.70809606002149
SN.node[354].xCoor = 299.799863553049
SN.node[354].yCoor = 54.21982133787179
SN.node[355].xCoor = 312.2314931183306
SN.node[355].yCoor = 48.274002880032924
SN.node[356].xCoor = 330.8136712260364
SN.node[356].yCoor = 50.4770481758768
SN.node[357].xCoor = 340.9442832768243
SN.node[357].yCoor = 43.90957414510825
SN.node[358].xCoor = 364.5462236558166
SN.node[358].yCoor = 56.037629353908244