[General]

# ==========================================================
# Always include the main Castalia.ini file
# ==========================================================

include ../Parameters/Castalia.ini

sim-time-limit = 15s

#include wsn_experiment.ini

SN.wirelessChannel.onlyStaticNodes = true
SN.wirelessChannel.sigma = 0
SN.wirelessChannel.bidirectionalSigma = 0
# Choose a radio and set the Tx power to a low value so
# that node's mobility has a better effect on connectivity
SN.node[*].Communication.Radio.RadioParametersFile = "../Parameters/Radio/CC2420.txt"
SN.node[*].Communication.Radio.TxOutputPower = "-5dBm"
SN.wirelessChannel.pathLossExponent = 2.4
SN.wirelessChannel.PLd0 = 51.55056 # 40m -> PLd0 = (-5dBm - max(-95dBm, -100dBm)) - 10 * pathLossExponent * log(40m)
SN.node[*].Communication.Radio.mode = "IDEAL"
SN.node[*].Communication.Radio.collisionModel = 0

#SN.node[*].Communication.MACProtocolName = "TunableMAC"
#SN.node[*].Communication.MAC.dutyCycle = 1.0
#SN.node[*].Communication.MAC.randomTxOffset = 0
#SN.node[*].Communication.MAC.backoffType = 2

#SN.node[*].Communication.RoutingProtocolName = "GreedyRouting"
# be carefull, turning debig info on may generate a lot of trace data
SN.node[*].Communication.Routing.collectTraceInfo = true

SN.node[*].ApplicationName = "SimplePairApplication"
SN.node[*].Application.collectTraceInfo = false

#SN.node[0].Application.packet_rate = 0.2
#SN.node[0].Application.maxData = 100
#SN.node[0].Application.startupDelay = 10
#SN.node[0].Application.nextRecipient = "2"


SN.node[*].Communication.RoutingProtocolName = "StableRouting"
SN.node[*].Communication.MACProtocolName = "TMAC"
SN.node[*].Communication.MAC.listenTimeout = 61
SN.node[*].Communication.MAC.disableTAextension = true
SN.node[*].Communication.MAC.conservativeTA = false
SN.node[*].Communication.MAC.collisionResolution = 0
SN.numNodes = 2000
SN.field_x = 800
SN.field_y = 800
SN.node[0].xCoor = 6.389399330703398
SN.node[0].yCoor = 23.728688593261673
SN.node[1].xCoor = 9.721011732991434
SN.node[1].yCoor = 36.21709467933889
SN.node[2].xCoor = 12.444608382151525
SN.node[2].yCoor = 33.17183220558235
SN.node[3].xCoor = 3.126937935998466
SN.node[3].yCoor = 25.990811617319967
SN.node[4].xCoor = 16.075081066320614
SN.node[4].yCoor = 13.276234207421647
SN.node[5].xCoor = 52.75915334761376
SN.node[5].yCoor = 28.074547290563608
SN.node[6].xCoor = 78.92886123881651
SN.node[6].yCoor = 23.88031330274729
SN.node[7].xCoor = 63.92333010812991
SN.node[7].yCoor = 23.212979291531486
SN.node[8].xCoor = 72.07112274424588
SN.node[8].yCoor = 3.030495180675352
SN.node[9].xCoor = 60.760804420411375
SN.node[9].yCoor = 19.977135338575877
SN.node[10].xCoor = 97.20460206430457
SN.node[10].yCoor = 22.95302560963008
SN.node[11].xCoor = 81.95170374462201
SN.node[11].yCoor = 24.878969838416918
SN.node[12].xCoor = 82.65048753538741
SN.node[12].yCoor = 0.08083495773520966
SN.node[13].xCoor = 116.3389875591773
SN.node[13].yCoor = 12.923871415614654
SN.node[14].xCoor = 86.84713705018953
SN.node[14].yCoor = 22.824084531242235
SN.node[15].xCoor = 129.9594262029744
SN.node[15].yCoor = 29.098615568515037
SN.node[16].xCoor = 148.0774221835991
SN.node[16].yCoor = 33.964257717102086
SN.node[17].xCoor = 156.11678713532635
SN.node[17].yCoor = 25.869098220292237
SN.node[18].xCoor = 153.02315759762615
SN.node[18].yCoor = 1.3827412929876193
SN.node[19].xCoor = 130.66593195329634
SN.node[19].yCoor = 32.66926208821541
SN.node[20].xCoor = 171.84159155703387
SN.node[20].yCoor = 22.600913511329807
SN.node[21].xCoor = 184.22778441507302
SN.node[21].yCoor = 25.73575331524129
SN.node[22].xCoor = 183.15508635599033
SN.node[22].yCoor = 28.739428090710398
SN.node[23].xCoor = 190.84281149047192
SN.node[23].yCoor = 23.900797006668213
SN.node[24].xCoor = 188.78086622548372
SN.node[24].yCoor = 24.235336557137003
SN.node[25].xCoor = 223.39310372443387
SN.node[25].yCoor = 12.534984498741268
SN.node[26].xCoor = 226.38864362453495
SN.node[26].yCoor = 11.859883992069316
SN.node[27].xCoor = 201.91456407834625
SN.node[27].yCoor = 23.600879429063326
SN.node[28].xCoor = 230.09198955588226
SN.node[28].yCoor = 38.288272294481345
SN.node[29].xCoor = 220.1221788538592
SN.node[29].yCoor = 0.6758189871321374
SN.node[30].xCoor = 260.5187320540919
SN.node[30].yCoor = 16.839113654294657
SN.node[31].xCoor = 247.8884018471936
SN.node[31].yCoor = 38.903146746099644
SN.node[32].xCoor = 268.93284291273307
SN.node[32].yCoor = 31.08454239707224
SN.node[33].xCoor = 257.26669613412275
SN.node[33].yCoor = 32.24496888055906
SN.node[34].xCoor = 267.08794263474186
SN.node[34].yCoor = 33.78374585688049
SN.node[35].xCoor = 282.35120245272907
SN.node[35].yCoor = 20.092615334350832
SN.node[36].xCoor = 295.8285668196441
SN.node[36].yCoor = 24.76647496625513
SN.node[37].xCoor = 311.9963525011515
SN.node[37].yCoor = 3.8041549570873023
SN.node[38].xCoor = 311.07139829348154
SN.node[38].yCoor = 36.48353971894568
SN.node[39].xCoor = 292.81255273107894
SN.node[39].yCoor = 7.521012977307908
SN.node[40].xCoor = 358.0876496536903
SN.node[40].yCoor = 21.44841346722119
SN.node[41].xCoor = 332.80835369749406
SN.node[41].yCoor = 23.54983728455285
SN.node[42].xCoor = 345.27440363927417
SN.node[42].yCoor = 10.139963960349316
SN.node[43].xCoor = 354.1613067528447
SN.node[43].yCoor = 31.429695149086278
SN.node[44].xCoor = 346.0637437038581
SN.node[44].yCoor = 8.579485860914238
SN.node[45].xCoor = 391.34070978031895
SN.node[45].yCoor = 25.506300406369597
SN.node[46].xCoor = 365.7640894246527
SN.node[46].yCoor = 32.706700801216726
SN.node[47].xCoor = 363.7994893342535
SN.node[47].yCoor = 36.701681120579366
SN.node[48].xCoor = 372.8772759486102
SN.node[48].yCoor = 3.9440635081537234
SN.node[49].xCoor = 367.775513240407
SN.node[49].yCoor = 28.42486676432869
SN.node[50].xCoor = 432.7614892992743
SN.node[50].yCoor = 21.92115639577225
SN.node[51].xCoor = 423.509441011689
SN.node[51].yCoor = 2.4809550441417105
SN.node[52].xCoor = 415.9685324234283
SN.node[52].yCoor = 1.9439615324613158
SN.node[53].xCoor = 404.5081874495076
SN.node[53].yCoor = 25.978533899023226
SN.node[54].xCoor = 403.3023093812858
SN.node[54].yCoor = 39.6172588560809
SN.node[55].xCoor = 477.4656392889473
SN.node[55].yCoor = 3.978428695147045
SN.node[56].xCoor = 471.8253833852618
SN.node[56].yCoor = 21.152768313104424
SN.node[57].xCoor = 469.9505419761763
SN.node[57].yCoor = 23.102770498845118
SN.node[58].xCoor = 450.7026128091383
SN.node[58].yCoor = 11.665237464253586
SN.node[59].xCoor = 473.7460796375935
SN.node[59].yCoor = 29.959060214079535
SN.node[60].xCoor = 486.4878810009735
SN.node[60].yCoor = 13.53849325788719
SN.node[61].xCoor = 495.3511199465496
SN.node[61].yCoor = 19.085928594324404
SN.node[62].xCoor = 488.1598420220823
SN.node[62].yCoor = 15.264157279455537
SN.node[63].xCoor = 511.96083250819015
SN.node[63].yCoor = 39.07373704441432
SN.node[64].xCoor = 513.4243162815031
SN.node[64].yCoor = 4.600349740895551
SN.node[65].xCoor = 558.0081160185331
SN.node[65].yCoor = 18.09231117445143
SN.node[66].xCoor = 536.1622619243826
SN.node[66].yCoor = 27.85834195760863
SN.node[67].xCoor = 551.5913033482313
SN.node[67].yCoor = 14.668401980532106
SN.node[68].xCoor = 522.48856314633
SN.node[68].yCoor = 12.310568730179527
SN.node[69].xCoor = 545.9567771845033
SN.node[69].yCoor = 2.9030596855193114
SN.node[70].xCoor = 589.4867046547976
SN.node[70].yCoor = 5.781567039375064
SN.node[71].xCoor = 595.7067132398715
SN.node[71].yCoor = 8.416611461476808
SN.node[72].xCoor = 568.016130579821
SN.node[72].yCoor = 6.709228552721065
SN.node[73].xCoor = 587.2169192768638
SN.node[73].yCoor = 7.091749609953943
SN.node[74].xCoor = 589.4208705316795
SN.node[74].yCoor = 19.110458295045312
SN.node[75].xCoor = 610.0779318920484
SN.node[75].yCoor = 2.80776341604585
SN.node[76].xCoor = 604.6913446041278
SN.node[76].yCoor = 29.470472143730824
SN.node[77].xCoor = 605.68181063079
SN.node[77].yCoor = 30.692936996138958
SN.node[78].xCoor = 619.2763885268939
SN.node[78].yCoor = 5.41482762819002
SN.node[79].xCoor = 616.3701164567784
SN.node[79].yCoor = 3.018231024225706
SN.node[80].xCoor = 663.5259265513398
SN.node[80].yCoor = 10.411754882469522
SN.node[81].xCoor = 657.8720079749648
SN.node[81].yCoor = 18.315933967897713
SN.node[82].xCoor = 647.2596775615524
SN.node[82].yCoor = 32.09094563548477
SN.node[83].xCoor = 673.0658027362397
SN.node[83].yCoor = 23.605816574294458
SN.node[84].xCoor = 642.5549973749613
SN.node[84].yCoor = 23.606056570739327
SN.node[85].xCoor = 694.6962533304707
SN.node[85].yCoor = 18.471575056971695
SN.node[86].xCoor = 682.8904628479002
SN.node[86].yCoor = 13.233983347588358
SN.node[87].xCoor = 700.6698050275126
SN.node[87].yCoor = 18.416055717100495
SN.node[88].xCoor = 687.9131210152577
SN.node[88].yCoor = 32.3256910774562
SN.node[89].xCoor = 690.0880986175849
SN.node[89].yCoor = 15.879240285164089
SN.node[90].xCoor = 755.3793584792617
SN.node[90].yCoor = 8.705712704266464
SN.node[91].xCoor = 724.5649375187819
SN.node[91].yCoor = 9.263827393007142
SN.node[92].xCoor = 748.560177866761
SN.node[92].yCoor = 34.70309338231851
SN.node[93].xCoor = 727.8341017092959
SN.node[93].yCoor = 21.003951754542598
SN.node[94].xCoor = 732.6397656621207
SN.node[94].yCoor = 11.47468803098664
SN.node[95].xCoor = 794.5693141132784
SN.node[95].yCoor = 6.817710800479757
SN.node[96].xCoor = 782.3195803338475
SN.node[96].yCoor = 3.431585807318722
SN.node[97].xCoor = 786.6239506720158
SN.node[97].yCoor = 30.53420220823635
SN.node[98].xCoor = 797.7267273650712
SN.node[98].yCoor = 12.255148348052076
SN.node[99].xCoor = 779.6482330751571
SN.node[99].yCoor = 31.579515564056706
SN.node[100].xCoor = 14.043328477404895
SN.node[100].yCoor = 40.75205305716153
SN.node[101].xCoor = 33.72250029319095
SN.node[101].yCoor = 74.55938831431517
SN.node[102].xCoor = 6.971816688735908
SN.node[102].yCoor = 41.163774027364475
SN.node[103].xCoor = 4.817851814591085
SN.node[103].yCoor = 59.38096223706807
SN.node[104].xCoor = 21.77717589737493
SN.node[104].yCoor = 77.16313414644772
SN.node[105].xCoor = 71.08925283115094
SN.node[105].yCoor = 43.58335619871224
SN.node[106].xCoor = 57.45565235005398
SN.node[106].yCoor = 74.95946633436796
SN.node[107].xCoor = 66.62169339785478
SN.node[107].yCoor = 65.73379787318237
SN.node[108].xCoor = 79.96473469185452
SN.node[108].yCoor = 54.844474649633895
SN.node[109].xCoor = 78.87955497241788
SN.node[109].yCoor = 52.81572978438802
SN.node[110].xCoor = 103.05653931077202
SN.node[110].yCoor = 72.7805927828211
SN.node[111].xCoor = 94.17921365727527
SN.node[111].yCoor = 74.38648410067488
SN.node[112].xCoor = 85.19784512502538
SN.node[112].yCoor = 55.68342752212038
SN.node[113].xCoor = 81.47729971654745
SN.node[113].yCoor = 44.00287889669097
SN.node[114].xCoor = 94.71814904737096
SN.node[114].yCoor = 53.702215842475375
SN.node[115].xCoor = 138.0748431085932
SN.node[115].yCoor = 62.239811618272
SN.node[116].xCoor = 133.33889866231593
SN.node[116].yCoor = 77.99516281970983
SN.node[117].xCoor = 155.1386778383613
SN.node[117].yCoor = 63.39049986565407
SN.node[118].xCoor = 138.02968912426348
SN.node[118].yCoor = 61.721698953305015
SN.node[119].xCoor = 122.03596577498487
SN.node[119].yCoor = 70.60767536953963
SN.node[120].xCoor = 195.48499323402558
SN.node[120].yCoor = 60.17965276828704
SN.node[121].xCoor = 198.79533580641595
SN.node[121].yCoor = 67.53261929412812
SN.node[122].xCoor = 181.5203077628071
SN.node[122].yCoor = 79.50770673300175
SN.node[123].xCoor = 186.34259602416657
SN.node[123].yCoor = 69.78500897697695
SN.node[124].xCoor = 191.4370528490165
SN.node[124].yCoor = 73.52347744299271
SN.node[125].xCoor = 207.46503812940358
SN.node[125].yCoor = 40.182334072404586
SN.node[126].xCoor = 226.56039879911842
SN.node[126].yCoor = 47.00398249726359
SN.node[127].xCoor = 206.35523190526678
SN.node[127].yCoor = 63.15340331967945
SN.node[128].xCoor = 227.85972515103518
SN.node[128].yCoor = 69.24930630926642
SN.node[129].xCoor = 201.82390210288722
SN.node[129].yCoor = 48.013347916617704
SN.node[130].xCoor = 260.01617735493045
SN.node[130].yCoor = 76.81490123124462
SN.node[131].xCoor = 275.5325431460033
SN.node[131].yCoor = 52.55866225302552
SN.node[132].xCoor = 267.1685635629359
SN.node[132].yCoor = 56.69138096658442
SN.node[133].xCoor = 272.6326029066007
SN.node[133].yCoor = 65.28540030327136
SN.node[134].xCoor = 259.9795236246851
SN.node[134].yCoor = 70.11434140689687
SN.node[135].xCoor = 299.9893106015214
SN.node[135].yCoor = 64.92441719447434
SN.node[136].xCoor = 316.89611069051693
SN.node[136].yCoor = 79.27328923931795
SN.node[137].xCoor = 282.15367783575283
SN.node[137].yCoor = 72.09258903923205
SN.node[138].xCoor = 301.7329206145316
SN.node[138].yCoor = 47.95213419726811
SN.node[139].xCoor = 292.99499093935844
SN.node[139].yCoor = 73.58041977160178
SN.node[140].xCoor = 359.41831692943225
SN.node[140].yCoor = 50.983277052703066
SN.node[141].xCoor = 333.3015299376063
SN.node[141].yCoor = 57.325686699549074
SN.node[142].xCoor = 328.5779659844284
SN.node[142].yCoor = 45.25972224454797
SN.node[143].xCoor = 353.7773278440266
SN.node[143].yCoor = 57.171383912582876
SN.node[144].xCoor = 347.99783638319144
SN.node[144].yCoor = 50.96490372978187
SN.node[145].xCoor = 389.9592789316653
SN.node[145].yCoor = 70.95817178865639
SN.node[146].xCoor = 398.51526528044127
SN.node[146].yCoor = 43.95240264320088
SN.node[147].xCoor = 360.3585106603583
SN.node[147].yCoor = 44.73828211664659
SN.node[148].xCoor = 391.0275797789644
SN.node[148].yCoor = 77.40285956522439
SN.node[149].xCoor = 379.5092572850695
SN.node[149].yCoor = 68.18740291713237
SN.node[150].xCoor = 410.21416194950893
SN.node[150].yCoor = 65.29560999858596
SN.node[151].xCoor = 419.5577604286351
SN.node[151].yCoor = 65.38905249193375
SN.node[152].xCoor = 400.9682161227685
SN.node[152].yCoor = 52.2851894255108
SN.node[153].xCoor = 429.43743002596455
SN.node[153].yCoor = 75.75808769272473
SN.node[154].xCoor = 434.15719614515285
SN.node[154].yCoor = 48.72769242564668
SN.node[155].xCoor = 458.68107977734354
SN.node[155].yCoor = 72.31447362815209
SN.node[156].xCoor = 445.22826295895857
SN.node[156].yCoor = 65.78182423621118
SN.node[157].xCoor = 446.27788367592217
SN.node[157].yCoor = 77.33941217271871
SN.node[158].xCoor = 450.93159907939605
SN.node[158].yCoor = 76.11889626801839
SN.node[159].xCoor = 457.1393719286422
SN.node[159].yCoor = 64.46653925211585
SN.node[160].xCoor = 494.22802962689616
SN.node[160].yCoor = 67.09571751666128
SN.node[161].xCoor = 511.81925541323363
SN.node[161].yCoor = 70.01799760293538
SN.node[162].xCoor = 517.9435539952365
SN.node[162].yCoor = 72.67810054536938
SN.node[163].xCoor = 502.3798855491229
SN.node[163].yCoor = 66.24110152509746
SN.node[164].xCoor = 491.31827513867097
SN.node[164].yCoor = 54.89375004606339
SN.node[165].xCoor = 528.1392522768223
SN.node[165].yCoor = 54.22705871564556
SN.node[166].xCoor = 524.1131290871234
SN.node[166].yCoor = 41.16410635512142
SN.node[167].xCoor = 532.9549676987809
SN.node[167].yCoor = 48.870470061041466
SN.node[168].xCoor = 531.1319381683431
SN.node[168].yCoor = 70.28093709810322
SN.node[169].xCoor = 559.4662117135728
SN.node[169].yCoor = 57.247911657381714
SN.node[170].xCoor = 574.9925366142375
SN.node[170].yCoor = 65.20491155643424
SN.node[171].xCoor = 599.4959962426353
SN.node[171].yCoor = 53.56843952920982
SN.node[172].xCoor = 592.7106593085181
SN.node[172].yCoor = 51.1104765356718
SN.node[173].xCoor = 594.8167437996938
SN.node[173].yCoor = 63.554372662059116
SN.node[174].xCoor = 575.9711894248652
SN.node[174].yCoor = 78.83522585458019
SN.node[175].xCoor = 606.3733462592809
SN.node[175].yCoor = 52.81174001935404
SN.node[176].xCoor = 617.5135956074679
SN.node[176].yCoor = 73.5191709660057
SN.node[177].xCoor = 605.1289639661932
SN.node[177].yCoor = 63.546722789702144
SN.node[178].xCoor = 632.2725617012712
SN.node[178].yCoor = 49.15814803848666
SN.node[179].xCoor = 630.6325823680203
SN.node[179].yCoor = 60.93898773984375
SN.node[180].xCoor = 672.3284963396749
SN.node[180].yCoor = 70.02443572738333
SN.node[181].xCoor = 678.1315706514679
SN.node[181].yCoor = 76.99040575935994
SN.node[182].xCoor = 663.8622446083734
SN.node[182].yCoor = 41.053854895187236
SN.node[183].xCoor = 675.2867487727042
SN.node[183].yCoor = 59.69827475014155
SN.node[184].xCoor = 667.8214310079942
SN.node[184].yCoor = 67.53427292955061
SN.node[185].xCoor = 689.2359985701034
SN.node[185].yCoor = 50.751928508644674
SN.node[186].xCoor = 710.685280750257
SN.node[186].yCoor = 74.85814636114682
SN.node[187].xCoor = 690.4263787285466
SN.node[187].yCoor = 53.18462394912322
SN.node[188].xCoor = 700.2557273631766
SN.node[188].yCoor = 47.288384348293604
SN.node[189].xCoor = 699.4701519454304
SN.node[189].yCoor = 78.23149389097455
SN.node[190].xCoor = 743.065495015685
SN.node[190].yCoor = 76.8813242951643
SN.node[191].xCoor = 751.2056856194641
SN.node[191].yCoor = 48.13079411571693
SN.node[192].xCoor = 757.6399826228452
SN.node[192].yCoor = 61.372765188667586
SN.node[193].xCoor = 744.8648877229413
SN.node[193].yCoor = 68.02380856643123
SN.node[194].xCoor = 747.5291774907611
SN.node[194].yCoor = 44.73877611632648
SN.node[195].xCoor = 798.2118251731829
SN.node[195].yCoor = 76.50121134603803
SN.node[196].xCoor = 787.3007499968423
SN.node[196].yCoor = 40.7567799930039
SN.node[197].xCoor = 774.03471467633
SN.node[197].yCoor = 70.60229024324015
SN.node[198].xCoor = 776.4118814017132
SN.node[198].yCoor = 66.97768219474177
SN.node[199].xCoor = 778.6772023063951
SN.node[199].yCoor = 78.5026872019244
SN.node[200].xCoor = 19.748149187519715
SN.node[200].yCoor = 100.97140536075833
SN.node[201].xCoor = 3.216739299169218
SN.node[201].yCoor = 86.17972911199539
SN.node[202].xCoor = 32.58828998992979
SN.node[202].yCoor = 92.85544049032681
SN.node[203].xCoor = 12.292132134833622
SN.node[203].yCoor = 109.06422260866006
SN.node[204].xCoor = 4.2526897560291665
SN.node[204].yCoor = 87.6164475310141
SN.node[205].xCoor = 51.35917273878354
SN.node[205].yCoor = 111.09399398398551
SN.node[206].xCoor = 63.71980463500798
SN.node[206].yCoor = 113.46531870431053
SN.node[207].xCoor = 57.04335785773714
SN.node[207].yCoor = 111.75179514437701
SN.node[208].xCoor = 52.656958437553456
SN.node[208].yCoor = 111.37487526447023
SN.node[209].xCoor = 57.78633697557041
SN.node[209].yCoor = 85.6421449281385
SN.node[210].xCoor = 116.61438123415856
SN.node[210].yCoor = 91.70428049217219
SN.node[211].xCoor = 116.17766617229532
SN.node[211].yCoor = 110.33684386860448
SN.node[212].xCoor = 113.30574995994198
SN.node[212].yCoor = 112.31007379616703
SN.node[213].xCoor = 106.90677959298256
SN.node[213].yCoor = 105.00008659948087
SN.node[214].xCoor = 95.73270232338685
SN.node[214].yCoor = 112.56113061037985
SN.node[215].xCoor = 134.50025572216506
SN.node[215].yCoor = 118.6777155713041
SN.node[216].xCoor = 138.33994507705717
SN.node[216].yCoor = 85.27327414604724
SN.node[217].xCoor = 154.76857694737475
SN.node[217].yCoor = 82.42494191836113
SN.node[218].xCoor = 121.05992859837721
SN.node[218].yCoor = 119.63344111857491
SN.node[219].xCoor = 141.3498613558549
SN.node[219].yCoor = 109.39516448889766
SN.node[220].xCoor = 196.87697036850545
SN.node[220].yCoor = 82.8832143233315
SN.node[221].xCoor = 198.9137473098488
SN.node[221].yCoor = 99.37549802512078
SN.node[222].xCoor = 174.71728375582728
SN.node[222].yCoor = 100.6549198145814
SN.node[223].xCoor = 187.05781706675393
SN.node[223].yCoor = 80.19951270793925
SN.node[224].xCoor = 190.2725486231254
SN.node[224].yCoor = 106.18643824967906
SN.node[225].xCoor = 226.99402315870833
SN.node[225].yCoor = 87.26499268697445
SN.node[226].xCoor = 230.03386159106861
SN.node[226].yCoor = 87.29320235166595
SN.node[227].xCoor = 204.44411366024778
SN.node[227].yCoor = 109.23747155517933
SN.node[228].xCoor = 215.93580610606662
SN.node[228].yCoor = 101.75219709604156
SN.node[229].xCoor = 218.99338087310707
SN.node[229].yCoor = 97.83813231154397
SN.node[230].xCoor = 256.41721461904893
SN.node[230].yCoor = 88.23319565395244
SN.node[231].xCoor = 274.25858002382495
SN.node[231].yCoor = 87.2092781158947
SN.node[232].xCoor = 263.0188755687356
SN.node[232].yCoor = 115.50488221331042
SN.node[233].xCoor = 258.2233721712388
SN.node[233].yCoor = 80.65621719861755
SN.node[234].xCoor = 245.52059406796454
SN.node[234].yCoor = 98.52230782819721
SN.node[235].xCoor = 294.6932605531066
SN.node[235].yCoor = 106.19948514448348
SN.node[236].xCoor = 286.6579194088217
SN.node[236].yCoor = 93.76438073211258
SN.node[237].xCoor = 299.70404480220657
SN.node[237].yCoor = 93.56969271740428
SN.node[238].xCoor = 303.87721416833637
SN.node[238].yCoor = 96.55589526499409
SN.node[239].xCoor = 306.6437325943036
SN.node[239].yCoor = 81.09450472328474
SN.node[240].xCoor = 329.9230962773418
SN.node[240].yCoor = 80.96250387004835
SN.node[241].xCoor = 320.62863228295964
SN.node[241].yCoor = 82.86245367572181
SN.node[242].xCoor = 348.144213944215
SN.node[242].yCoor = 95.8500230298906
SN.node[243].xCoor = 329.8149989457506
SN.node[243].yCoor = 104.34287432246043
SN.node[244].xCoor = 320.53241314732736
SN.node[244].yCoor = 111.56675629858837
SN.node[245].xCoor = 376.0407608575612
SN.node[245].yCoor = 80.63447198926764
SN.node[246].xCoor = 365.8063151806986
SN.node[246].yCoor = 93.38662263788174
SN.node[247].xCoor = 377.92707290026055
SN.node[247].yCoor = 87.62002438300924
SN.node[248].xCoor = 375.7174167960401
SN.node[248].yCoor = 87.18970780659609
SN.node[249].xCoor = 397.2918218405127
SN.node[249].yCoor = 81.83664604577194
SN.node[250].xCoor = 433.30670474630784
SN.node[250].yCoor = 119.73454102428634
SN.node[251].xCoor = 427.90320059417866
SN.node[251].yCoor = 95.85833398396439
SN.node[252].xCoor = 411.0139814472922
SN.node[252].yCoor = 95.05442391176997
SN.node[253].xCoor = 406.51975493741713
SN.node[253].yCoor = 109.63314563750657
SN.node[254].xCoor = 403.3523868872664
SN.node[254].yCoor = 83.24695659687757
SN.node[255].xCoor = 478.83499584006097
SN.node[255].yCoor = 114.26414005190293
SN.node[256].xCoor = 457.0420955350783
SN.node[256].yCoor = 85.29634981320369
SN.node[257].xCoor = 463.3127302294849
SN.node[257].yCoor = 102.23904158027433
SN.node[258].xCoor = 441.1743826902549
SN.node[258].yCoor = 108.84607182220711
SN.node[259].xCoor = 461.06691202923884
SN.node[259].yCoor = 85.652549489228
SN.node[260].xCoor = 509.681411297276
SN.node[260].yCoor = 111.19862267978417
SN.node[261].xCoor = 515.0023752973722
SN.node[261].yCoor = 90.80315155098253
SN.node[262].xCoor = 493.43665629872606
SN.node[262].yCoor = 116.3174945161528
SN.node[263].xCoor = 505.0520235516914
SN.node[263].yCoor = 102.05281701176482
SN.node[264].xCoor = 510.8656307549334
SN.node[264].yCoor = 86.99765202630711
SN.node[265].xCoor = 526.5312008605977
SN.node[265].yCoor = 110.60806313239749
SN.node[266].xCoor = 527.1750240088988
SN.node[266].yCoor = 102.87910093119851
SN.node[267].xCoor = 524.0068688428246
SN.node[267].yCoor = 112.54802600979531
SN.node[268].xCoor = 522.5535876968385
SN.node[268].yCoor = 93.48642783248123
SN.node[269].xCoor = 558.6537579080921
SN.node[269].yCoor = 95.85414485796736
SN.node[270].xCoor = 576.3705155945604
SN.node[270].yCoor = 93.43320275564884
SN.node[271].xCoor = 599.3722489846151
SN.node[271].yCoor = 113.8579521325795
SN.node[272].xCoor = 576.97049416137
SN.node[272].yCoor = 82.41266678559157
SN.node[273].xCoor = 574.2061109660536
SN.node[273].yCoor = 104.71694763136767
SN.node[274].xCoor = 588.4416738723869
SN.node[274].yCoor = 93.57778185324725
SN.node[275].xCoor = 627.3980387101501
SN.node[275].yCoor = 107.59740905139606
SN.node[276].xCoor = 616.9275924939415
SN.node[276].yCoor = 114.24279629771463
SN.node[277].xCoor = 610.84814749481
SN.node[277].yCoor = 109.26919745321682
SN.node[278].xCoor = 630.5621727865653
SN.node[278].yCoor = 91.77163673091628
SN.node[279].xCoor = 603.9885557579681
SN.node[279].yCoor = 100.44386159361069
SN.node[280].xCoor = 671.9004799354523
SN.node[280].yCoor = 88.1761691687006
SN.node[281].xCoor = 651.8466075121262
SN.node[281].yCoor = 114.63741699064973
SN.node[282].xCoor = 667.9896360747991
SN.node[282].yCoor = 98.83471300050417
SN.node[283].xCoor = 648.9772149672958
SN.node[283].yCoor = 113.64260692651557
SN.node[284].xCoor = 663.4527619112991
SN.node[284].yCoor = 115.39088672500529
SN.node[285].xCoor = 687.4169629359303
SN.node[285].yCoor = 119.49698172351577
SN.node[286].xCoor = 695.2138538941555
SN.node[286].yCoor = 102.08185278973392
SN.node[287].xCoor = 694.6624745242625
SN.node[287].yCoor = 114.20936072875425
SN.node[288].xCoor = 713.5056574636336
SN.node[288].yCoor = 119.3253660388719
SN.node[289].xCoor = 690.8230644480849
SN.node[289].yCoor = 87.74453440621254
SN.node[290].xCoor = 725.1647612274694
SN.node[290].yCoor = 117.6520110215393
SN.node[291].xCoor = 756.1074783031996
SN.node[291].yCoor = 96.14332343771139
SN.node[292].xCoor = 756.9368043219038
SN.node[292].yCoor = 114.67730655102343
SN.node[293].xCoor = 750.3255352803312
SN.node[293].yCoor = 105.2994788833431
SN.node[294].xCoor = 726.0773829077574
SN.node[294].yCoor = 95.77194384891312
SN.node[295].xCoor = 791.5076662433971
SN.node[295].yCoor = 112.99461160461757
SN.node[296].xCoor = 760.976104712295
SN.node[296].yCoor = 109.69125039732396
SN.node[297].xCoor = 786.1463358987437
SN.node[297].yCoor = 100.54297510085277
SN.node[298].xCoor = 798.4583185550572
SN.node[298].yCoor = 95.55046525499927
SN.node[299].xCoor = 790.547536084796
SN.node[299].yCoor = 100.17197307954895
SN.node[300].xCoor = 32.281899117571236
SN.node[300].yCoor = 122.2090685242369
SN.node[301].xCoor = 3.7154670817822844
SN.node[301].yCoor = 145.00291693393413
SN.node[302].xCoor = 21.848940896893314
SN.node[302].yCoor = 151.3297708161528
SN.node[303].xCoor = 23.66849302924721
SN.node[303].yCoor = 129.28371633060434
SN.node[304].xCoor = 2.1445008748733496
SN.node[304].yCoor = 135.61125784910706
SN.node[305].xCoor = 44.84751358684069
SN.node[305].yCoor = 140.60139138360844
SN.node[306].xCoor = 53.10122515452023
SN.node[306].yCoor = 139.44938985289664
SN.node[307].xCoor = 67.31444106096666
SN.node[307].yCoor = 123.01042976573319
SN.node[308].xCoor = 62.171210986319664
SN.node[308].yCoor = 138.9222431828366
SN.node[309].xCoor = 58.27193964462187
SN.node[309].yCoor = 143.62098877371548
SN.node[310].xCoor = 87.62330150118304
SN.node[310].yCoor = 137.23846040822127
SN.node[311].xCoor = 85.86290825476418
SN.node[311].yCoor = 147.11849202629668
SN.node[312].xCoor = 114.74012212718604
SN.node[312].yCoor = 148.3266138169046
SN.node[313].xCoor = 106.61173229966953
SN.node[313].yCoor = 132.51933729219246
SN.node[314].xCoor = 105.65487339773655
SN.node[314].yCoor = 124.4474445733671
SN.node[315].xCoor = 135.31405881468848
SN.node[315].yCoor = 158.08438108888612
SN.node[316].xCoor = 150.15343163453775
SN.node[316].yCoor = 155.38039645116413
SN.node[317].xCoor = 128.08416398554934
SN.node[317].yCoor = 136.41102239974782
SN.node[318].xCoor = 146.45524243803385
SN.node[318].yCoor = 136.0083920663767
SN.node[319].xCoor = 120.22896652587272
SN.node[319].yCoor = 143.0432416551526
SN.node[320].xCoor = 177.08174285248796
SN.node[320].yCoor = 145.6188140529545
SN.node[321].xCoor = 172.91493933158043
SN.node[321].yCoor = 153.8698778286282
SN.node[322].xCoor = 170.38402914619593
SN.node[322].yCoor = 124.68266803463253
SN.node[323].xCoor = 163.76756783892853
SN.node[323].yCoor = 124.984555985911
SN.node[324].xCoor = 196.39229240751968
SN.node[324].yCoor = 120.58460257939052
SN.node[325].xCoor = 219.34095115630817
SN.node[325].yCoor = 145.37042689471593
SN.node[326].xCoor = 205.11279238295722
SN.node[326].yCoor = 121.17328386379177
SN.node[327].xCoor = 210.53306866082403
SN.node[327].yCoor = 134.64294370025152
SN.node[328].xCoor = 234.19773934568877
SN.node[328].yCoor = 155.71679730941585
SN.node[329].xCoor = 209.7242936524692
SN.node[329].yCoor = 140.59681814149175
SN.node[330].xCoor = 274.33957768253924
SN.node[330].yCoor = 158.00404412914042
SN.node[331].xCoor = 245.66857862279036
SN.node[331].yCoor = 146.84458510526807
SN.node[332].xCoor = 244.27253025274632
SN.node[332].yCoor = 150.08554063702968
SN.node[333].xCoor = 270.9513920472557
SN.node[333].yCoor = 131.19580385692763
SN.node[334].xCoor = 243.23370205097928
SN.node[334].yCoor = 127.11379350856203
SN.node[335].xCoor = 301.0879394177282
SN.node[335].yCoor = 124.6475806039152
SN.node[336].xCoor = 317.93194489759105
SN.node[336].yCoor = 136.33831218842548
SN.node[337].xCoor = 292.0239024137432
SN.node[337].yCoor = 153.81917917918523
SN.node[338].xCoor = 302.9102564684614
SN.node[338].yCoor = 154.99787841635577
SN.node[339].xCoor = 283.01524974898587
SN.node[339].yCoor = 153.94130311319068
SN.node[340].xCoor = 356.13627496054914
SN.node[340].yCoor = 145.65197739521193
SN.node[341].xCoor = 346.0508206288044
SN.node[341].yCoor = 151.4290773875811
SN.node[342].xCoor = 343.4456065470725
SN.node[342].yCoor = 130.12248240309378
SN.node[343].xCoor = 354.6054377865041
SN.node[343].yCoor = 158.96716547337843
SN.node[344].xCoor = 323.3855728249472
SN.node[344].yCoor = 135.98325649576594
SN.node[345].xCoor = 392.4060368371486
SN.node[345].yCoor = 121.07299939382283
SN.node[346].xCoor = 371.9646736840418
SN.node[346].yCoor = 138.31087261020144
SN.node[347].xCoor = 360.99490783949653
SN.node[347].yCoor = 148.96866730493005
SN.node[348].xCoor = 375.44352499424144
SN.node[348].yCoor = 159.29143395284223
SN.node[349].xCoor = 382.38528744547654
SN.node[349].yCoor = 129.13457442568927
SN.node[350].xCoor = 431.51482527516595
SN.node[350].yCoor = 158.90113910211699
SN.node[351].xCoor = 433.8215954541226
SN.node[351].yCoor = 141.72534174135984
SN.node[352].xCoor = 402.746093805638
SN.node[352].yCoor = 134.40481314333132
SN.node[353].xCoor = 416.4090355131705
SN.node[353].yCoor = 126.75302095189762
SN.node[354].xCoor = 400.04058240437166
SN.node[354].yCoor = 120.92005161479376
SN.node[355].xCoor = 475.83411639531505
SN.node[355].yCoor = 128.02735548929334
SN.node[356].xCoor = 453.375329961558
SN.node[356].yCoor = 131.26445581734222
SN.node[357].xCoor = 451.33406802368995
SN.node[357].yCoor = 128.48231192569958
SN.node[358].xCoor = 445.1760879513422
SN.node[358].yCoor = 132.4898509655698
SN.node[359].xCoor = 442.2691387332518