[General]

# ==========================================================
# Always include the main Castalia.ini file
# ==========================================================

include ../Parameters/Castalia.ini

sim-time-limit = 25s

#include wsn_experiment.ini

SN.wirelessChannel.onlyStaticNodes = true
SN.wirelessChannel.sigma = 0
SN.wirelessChannel.bidirectionalSigma = 0
# Choose a radio and set the Tx power to a low value so
# that node's mobility has a better effect on connectivity
SN.node[*].Communication.Radio.RadioParametersFile = "../Parameters/Radio/CC2420.txt"
SN.node[*].Communication.Radio.TxOutputPower = "-5dBm"
SN.wirelessChannel.pathLossExponent = 2.4
SN.wirelessChannel.PLd0 = 51.55056 # 40m -> PLd0 = (-5dBm - max(-95dBm, -100dBm)) - 10 * pathLossExponent * log(40m)
SN.node[*].Communication.Radio.mode = "IDEAL"
SN.node[*].Communication.Radio.collisionModel = 0

SN.node[*].Communication.MACProtocolName = "TunableMAC"
SN.node[*].Communication.MAC.dutyCycle = 1.0
SN.node[*].Communication.MAC.randomTxOffset = 0
SN.node[*].Communication.MAC.backoffType = 2

SN.node[*].Communication.RoutingProtocolName = "GpsrRouting"
# be carefull, turning debig info on may generate a lot of trace data
SN.node[*].Communication.Routing.collectTraceInfo = true

SN.node[*].ApplicationName = "SimplePairApplication"
SN.node[*].Application.collectTraceInfo = false

#SN.node[0].Application.packet_rate = 0.2
#SN.node[0].Application.maxData = 100
#SN.node[0].Application.startupDelay = 10
#SN.node[0].Application.nextRecipient = "2"


SN.numNodes = 779
SN.field_x = 1000
SN.field_y = 1000
SN.node[0].xCoor = 25
SN.node[0].yCoor = 30
SN.node[1].xCoor = 50
SN.node[1].yCoor = 23
SN.node[2].xCoor = 82
SN.node[2].yCoor = 20
SN.node[3].xCoor = 99
SN.node[3].yCoor = 18
SN.node[4].xCoor = 136
SN.node[4].yCoor = 17
SN.node[5].xCoor = 167
SN.node[5].yCoor = 7
SN.node[6].xCoor = 203
SN.node[6].yCoor = 25
SN.node[7].xCoor = 243
SN.node[7].yCoor = 10
SN.node[8].xCoor = 264
SN.node[8].yCoor = 23
SN.node[9].xCoor = 303
SN.node[9].yCoor = 2
SN.node[10].xCoor = 338
SN.node[10].yCoor = 16
SN.node[11].xCoor = 374
SN.node[11].yCoor = 28
SN.node[12].xCoor = 413
SN.node[12].yCoor = 30
SN.node[13].xCoor = 445
SN.node[13].yCoor = 27
SN.node[14].xCoor = 474
SN.node[14].yCoor = 24
SN.node[15].xCoor = 486
SN.node[15].yCoor = 6
SN.node[16].xCoor = 542
SN.node[16].yCoor = 2
SN.node[17].xCoor = 550
SN.node[17].yCoor = 12
SN.node[18].xCoor = 593
SN.node[18].yCoor = 26
SN.node[19].xCoor = 618
SN.node[19].yCoor = 22
SN.node[20].xCoor = 665
SN.node[20].yCoor = 20
SN.node[21].xCoor = 706
SN.node[21].yCoor = 24
SN.node[22].xCoor = 716
SN.node[22].yCoor = 15
SN.node[23].xCoor = 749
SN.node[23].yCoor = 21
SN.node[24].xCoor = 793
SN.node[24].yCoor = 14
SN.node[25].xCoor = 830
SN.node[25].yCoor = 8
SN.node[26].xCoor = 849
SN.node[26].yCoor = 20
SN.node[27].xCoor = 885
SN.node[27].yCoor = 8
SN.node[28].xCoor = 907
SN.node[28].yCoor = 29
SN.node[29].xCoor = 961
SN.node[29].yCoor = 19
SN.node[30].xCoor = 992
SN.node[30].yCoor = 23
SN.node[31].xCoor = 25
SN.node[31].yCoor = 43
SN.node[32].xCoor = 37
SN.node[32].yCoor = 33
SN.node[33].xCoor = 95
SN.node[33].yCoor = 35
SN.node[34].xCoor = 105
SN.node[34].yCoor = 61
SN.node[35].xCoor = 139
SN.node[35].yCoor = 55
SN.node[36].xCoor = 191
SN.node[36].yCoor = 49
SN.node[37].xCoor = 221
SN.node[37].yCoor = 57
SN.node[38].xCoor = 257
SN.node[38].yCoor = 55
SN.node[39].xCoor = 281
SN.node[39].yCoor = 35
SN.node[40].xCoor = 310
SN.node[40].yCoor = 37
SN.node[41].xCoor = 328
SN.node[41].yCoor = 43
SN.node[42].xCoor = 369
SN.node[42].yCoor = 47
SN.node[43].xCoor = 411
SN.node[43].yCoor = 45
SN.node[44].xCoor = 450
SN.node[44].yCoor = 50
SN.node[45].xCoor = 473
SN.node[45].yCoor = 36
SN.node[46].xCoor = 512
SN.node[46].yCoor = 57
SN.node[47].xCoor = 543
SN.node[47].yCoor = 46
SN.node[48].xCoor = 579
SN.node[48].yCoor = 42
SN.node[49].xCoor = 591
SN.node[49].yCoor = 60
SN.node[50].xCoor = 635
SN.node[50].yCoor = 36
SN.node[51].xCoor = 651
SN.node[51].yCoor = 42
SN.node[52].xCoor = 707
SN.node[52].yCoor = 59
SN.node[53].xCoor = 732
SN.node[53].yCoor = 39
SN.node[54].xCoor = 754
SN.node[54].yCoor = 50
SN.node[55].xCoor = 804
SN.node[55].yCoor = 54
SN.node[56].xCoor = 834
SN.node[56].yCoor = 32
SN.node[57].xCoor = 842
SN.node[57].yCoor = 52
SN.node[58].xCoor = 876
SN.node[58].yCoor = 46
SN.node[59].xCoor = 921
SN.node[59].yCoor = 43
SN.node[60].xCoor = 946
SN.node[60].yCoor = 55
SN.node[61].xCoor = 998
SN.node[61].yCoor = 45
SN.node[62].xCoor = 1
SN.node[62].yCoor = 68
SN.node[63].xCoor = 52
SN.node[63].yCoor = 81
SN.node[64].xCoor = 94
SN.node[64].yCoor = 80
SN.node[65].xCoor = 121
SN.node[65].yCoor = 82
SN.node[66].xCoor = 154
SN.node[66].yCoor = 67
SN.node[67].xCoor = 176
SN.node[67].yCoor = 84
SN.node[68].xCoor = 198
SN.node[68].yCoor = 74
SN.node[69].xCoor = 243
SN.node[69].yCoor = 74
SN.node[70].xCoor = 280
SN.node[70].yCoor = 72
SN.node[71].xCoor = 295
SN.node[71].yCoor = 70
SN.node[72].xCoor = 328
SN.node[72].yCoor = 72
SN.node[73].xCoor = 384
SN.node[73].yCoor = 86
SN.node[74].xCoor = 397
SN.node[74].yCoor = 72
SN.node[75].xCoor = 424
SN.node[75].yCoor = 78
SN.node[76].xCoor = 461
SN.node[76].yCoor = 84
SN.node[77].xCoor = 508
SN.node[77].yCoor = 84
SN.node[78].xCoor = 527
SN.node[78].yCoor = 73
SN.node[79].xCoor = 574
SN.node[79].yCoor = 66
SN.node[80].xCoor = 599
SN.node[80].yCoor = 76
SN.node[81].xCoor = 633
SN.node[81].yCoor = 71
SN.node[82].xCoor = 675
SN.node[82].yCoor = 91
SN.node[83].xCoor = 685
SN.node[83].yCoor = 92
SN.node[84].xCoor = 715
SN.node[84].yCoor = 72
SN.node[85].xCoor = 750
SN.node[85].yCoor = 90
SN.node[86].xCoor = 799
SN.node[86].yCoor = 91
SN.node[87].xCoor = 807
SN.node[87].yCoor = 75
SN.node[88].xCoor = 846
SN.node[88].yCoor = 69
SN.node[89].xCoor = 901
SN.node[89].yCoor = 87
SN.node[90].xCoor = 923
SN.node[90].yCoor = 76
SN.node[91].xCoor = 940
SN.node[91].yCoor = 77
SN.node[92].xCoor = 981
SN.node[92].yCoor = 80
SN.node[93].xCoor = 24
SN.node[93].yCoor = 101
SN.node[94].xCoor = 59
SN.node[94].yCoor = 102
SN.node[95].xCoor = 94
SN.node[95].yCoor = 102
SN.node[96].xCoor = 113
SN.node[96].yCoor = 99
SN.node[97].xCoor = 149
SN.node[97].yCoor = 102
SN.node[98].xCoor = 178
SN.node[98].yCoor = 111
SN.node[99].xCoor = 203
SN.node[99].yCoor = 107
SN.node[100].xCoor = 239
SN.node[100].yCoor = 107
SN.node[101].xCoor = 260
SN.node[101].yCoor = 118
SN.node[102].xCoor = 295
SN.node[102].yCoor = 113
SN.node[103].xCoor = 349
SN.node[103].yCoor = 106
SN.node[104].xCoor = 373
SN.node[104].yCoor = 128
SN.node[105].xCoor = 387
SN.node[105].yCoor = 116
SN.node[106].xCoor = 423
SN.node[106].yCoor = 118
SN.node[107].xCoor = 476
SN.node[107].yCoor = 110
SN.node[108].xCoor = 486
SN.node[108].yCoor = 102
SN.node[109].xCoor = 529
SN.node[109].yCoor = 101
SN.node[110].xCoor = 551
SN.node[110].yCoor = 122
SN.node[111].xCoor = 593
SN.node[111].yCoor = 99
SN.node[112].xCoor = 640
SN.node[112].yCoor = 128
SN.node[113].xCoor = 656
SN.node[113].yCoor = 102
SN.node[114].xCoor = 699
SN.node[114].yCoor = 116
SN.node[115].xCoor = 729
SN.node[115].yCoor = 114
SN.node[116].xCoor = 754
SN.node[116].yCoor = 126
SN.node[117].xCoor = 804
SN.node[117].yCoor = 116
SN.node[118].xCoor = 817
SN.node[118].yCoor = 127
SN.node[119].xCoor = 849
SN.node[119].yCoor = 116
SN.node[120].xCoor = 880
SN.node[120].yCoor = 100
SN.node[121].xCoor = 922
SN.node[121].yCoor = 122
SN.node[122].xCoor = 940
SN.node[122].yCoor = 104
SN.node[123].xCoor = 998
SN.node[123].yCoor = 105
SN.node[124].xCoor = 12
SN.node[124].yCoor = 131
SN.node[125].xCoor = 44
SN.node[125].yCoor = 143
SN.node[126].xCoor = 93
SN.node[126].yCoor = 141
SN.node[127].xCoor = 104
SN.node[127].yCoor = 145
SN.node[128].xCoor = 137
SN.node[128].yCoor = 140
SN.node[129].xCoor = 182
SN.node[129].yCoor = 131
SN.node[130].xCoor = 224
SN.node[130].yCoor = 160
SN.node[131].xCoor = 235
SN.node[131].yCoor = 136
SN.node[132].xCoor = 289
SN.node[132].yCoor = 130
SN.node[133].xCoor = 299
SN.node[133].yCoor = 132
SN.node[134].xCoor = 338
SN.node[134].yCoor = 145
SN.node[135].xCoor = 382
SN.node[135].yCoor = 155
SN.node[136].xCoor = 413
SN.node[136].yCoor = 143
SN.node[137].xCoor = 435
SN.node[137].yCoor = 139
SN.node[138].xCoor = 467
SN.node[138].yCoor = 138
SN.node[139].xCoor = 510
SN.node[139].yCoor = 134
SN.node[140].xCoor = 523
SN.node[140].yCoor = 147
SN.node[141].xCoor = 555
SN.node[141].yCoor = 137
SN.node[142].xCoor = 585
SN.node[142].yCoor = 136
SN.node[143].xCoor = 613
SN.node[143].yCoor = 136
SN.node[144].xCoor = 657
SN.node[144].yCoor = 156
SN.node[145].xCoor = 699
SN.node[145].yCoor = 148
SN.node[146].xCoor = 740
SN.node[146].yCoor = 137
SN.node[147].xCoor = 746
SN.node[147].yCoor = 140
SN.node[148].xCoor = 790
SN.node[148].yCoor = 131
SN.node[149].xCoor = 814
SN.node[149].yCoor = 146
SN.node[150].xCoor = 838
SN.node[150].yCoor = 131
SN.node[151].xCoor = 889
SN.node[151].yCoor = 143
SN.node[152].xCoor = 922
SN.node[152].yCoor = 147
SN.node[153].xCoor = 954
SN.node[153].yCoor = 159
SN.node[154].xCoor = 968
SN.node[154].yCoor = 147
SN.node[155].xCoor = 28
SN.node[155].yCoor = 191
SN.node[156].xCoor = 40
SN.node[156].yCoor = 164
SN.node[157].xCoor = 89
SN.node[157].yCoor = 164
SN.node[158].xCoor = 128
SN.node[158].yCoor = 183
SN.node[159].xCoor = 157
SN.node[159].yCoor = 163
SN.node[160].xCoor = 163
SN.node[160].yCoor = 185
SN.node[161].xCoor = 198
SN.node[161].yCoor = 174
SN.node[162].xCoor = 230
SN.node[162].yCoor = 190
SN.node[163].xCoor = 274
SN.node[163].yCoor = 180
SN.node[164].xCoor = 295
SN.node[164].yCoor = 176
SN.node[165].xCoor = 348
SN.node[165].yCoor = 174
SN.node[166].xCoor = 405
SN.node[166].yCoor = 185
SN.node[167].xCoor = 441
SN.node[167].yCoor = 186
SN.node[168].xCoor = 471
SN.node[168].yCoor = 182
SN.node[169].xCoor = 504
SN.node[169].yCoor = 168
SN.node[170].xCoor = 543
SN.node[170].yCoor = 175
SN.node[171].xCoor = 571
SN.node[171].yCoor = 175
SN.node[172].xCoor = 581
SN.node[172].yCoor = 180
SN.node[173].xCoor = 631
SN.node[173].yCoor = 189
SN.node[174].xCoor = 647
SN.node[174].yCoor = 176
SN.node[175].xCoor = 699
SN.node[175].yCoor = 174
SN.node[176].xCoor = 709
SN.node[176].yCoor = 176
SN.node[177].xCoor = 750
SN.node[177].yCoor = 180
SN.node[178].xCoor = 787
SN.node[178].yCoor = 183
SN.node[179].xCoor = 820
SN.node[179].yCoor = 162
SN.node[180].xCoor = 852
SN.node[180].yCoor = 165
SN.node[181].xCoor = 875
SN.node[181].yCoor = 180
SN.node[182].xCoor = 908
SN.node[182].yCoor = 191
SN.node[183].xCoor = 952
SN.node[183].yCoor = 176
SN.node[184].xCoor = 999
SN.node[184].yCoor = 193
SN.node[185].xCoor = 14
SN.node[185].yCoor = 204
SN.node[186].xCoor = 35
SN.node[186].yCoor = 214
SN.node[187].xCoor = 83
SN.node[187].yCoor = 213
SN.node[188].xCoor = 102
SN.node[188].yCoor = 217
SN.node[189].xCoor = 147
SN.node[189].yCoor = 211
SN.node[190].xCoor = 189
SN.node[190].yCoor = 214
SN.node[191].xCoor = 204
SN.node[191].yCoor = 215
SN.node[192].xCoor = 233
SN.node[192].yCoor = 206
SN.node[193].xCoor = 282
SN.node[193].yCoor = 208
SN.node[194].xCoor = 330
SN.node[194].yCoor = 193
SN.node[195].xCoor = 428
SN.node[195].yCoor = 201
SN.node[196].xCoor = 465
SN.node[196].yCoor = 218
SN.node[197].xCoor = 494
SN.node[197].yCoor = 211
SN.node[198].xCoor = 531
SN.node[198].yCoor = 212
SN.node[199].xCoor = 579
SN.node[199].yCoor = 217
SN.node[200].xCoor = 592
SN.node[200].yCoor = 194
SN.node[201].xCoor = 613
SN.node[201].yCoor = 206
SN.node[202].xCoor = 661
SN.node[202].yCoor = 211
SN.node[203].xCoor = 692
SN.node[203].yCoor = 221
SN.node[204].xCoor = 717
SN.node[204].yCoor = 218
SN.node[205].xCoor = 750
SN.node[205].yCoor = 217
SN.node[206].xCoor = 796
SN.node[206].yCoor = 217
SN.node[207].xCoor = 829
SN.node[207].yCoor = 216
SN.node[208].xCoor = 854
SN.node[208].yCoor = 210
SN.node[209].xCoor = 874
SN.node[209].yCoor = 225
SN.node[210].xCoor = 930
SN.node[210].yCoor = 221
SN.node[211].xCoor = 954
SN.node[211].yCoor = 212
SN.node[212].xCoor = 981
SN.node[212].yCoor = 204
SN.node[213].xCoor = 4
SN.node[213].yCoor = 238
SN.node[214].xCoor = 41
SN.node[214].yCoor = 226
SN.node[215].xCoor = 71
SN.node[215].yCoor = 235
SN.node[216].xCoor = 110
SN.node[216].yCoor = 245
SN.node[217].xCoor = 131
SN.node[217].yCoor = 232
SN.node[218].xCoor = 192
SN.node[218].yCoor = 237
SN.node[219].xCoor = 209
SN.node[219].yCoor = 256
SN.node[220].xCoor = 229
SN.node[220].yCoor = 238
SN.node[221].xCoor = 266
SN.node[221].yCoor = 225
SN.node[222].xCoor = 439
SN.node[222].yCoor = 241
SN.node[223].xCoor = 457
SN.node[223].yCoor = 229
SN.node[224].xCoor = 510
SN.node[224].yCoor = 251
SN.node[225].xCoor = 519
SN.node[225].yCoor = 247
SN.node[226].xCoor = 571
SN.node[226].yCoor = 230
SN.node[227].xCoor = 596
SN.node[227].yCoor = 240
SN.node[228].xCoor = 630
SN.node[228].yCoor = 256
SN.node[229].xCoor = 655
SN.node[229].yCoor = 246
SN.node[230].xCoor = 697
SN.node[230].yCoor = 240
SN.node[231].xCoor = 728
SN.node[231].yCoor = 237
SN.node[232].xCoor = 758
SN.node[232].yCoor = 243
SN.node[233].xCoor = 797
SN.node[233].yCoor = 248
SN.node[234].xCoor = 816
SN.node[234].yCoor = 253
SN.node[235].xCoor = 850
SN.node[235].yCoor = 235
SN.node[236].xCoor = 880
SN.node[236].yCoor = 254
SN.node[237].xCoor = 909
SN.node[237].yCoor = 238
SN.node[238].xCoor = 941
SN.node[238].yCoor = 241
SN.node[239].xCoor = 998
SN.node[239].yCoor = 248
SN.node[240].xCoor = 1
SN.node[240].yCoor = 268
SN.node[241].xCoor = 49
SN.node[241].yCoor = 267
SN.node[242].xCoor = 91
SN.node[242].yCoor = 267
SN.node[243].xCoor = 118
SN.node[243].yCoor = 269
SN.node[244].xCoor = 145
SN.node[244].yCoor = 280
SN.node[245].xCoor = 185
SN.node[245].yCoor = 267
SN.node[246].xCoor = 200
SN.node[246].yCoor = 268
SN.node[247].xCoor = 229
SN.node[247].yCoor = 278
SN.node[248].xCoor = 538
SN.node[248].yCoor = 284
SN.node[249].xCoor = 562
SN.node[249].yCoor = 258
SN.node[250].xCoor = 688
SN.node[250].yCoor = 259
SN.node[251].xCoor = 726
SN.node[251].yCoor = 258
SN.node[252].xCoor = 763
SN.node[252].yCoor = 258
SN.node[253].xCoor = 783
SN.node[253].yCoor = 279
SN.node[254].xCoor = 815
SN.node[254].yCoor = 282
SN.node[255].xCoor = 861
SN.node[255].yCoor = 278
SN.node[256].xCoor = 901
SN.node[256].yCoor = 259
SN.node[257].xCoor = 930
SN.node[257].yCoor = 281
SN.node[258].xCoor = 966
SN.node[258].yCoor = 258
SN.node[259].xCoor = 984
SN.node[259].yCoor = 278
SN.node[260].xCoor = 14
SN.node[260].yCoor = 301
SN.node[261].xCoor = 49
SN.node[261].yCoor = 307
SN.node[262].xCoor = 85
SN.node[262].yCoor = 320
SN.node[263].xCoor = 103
SN.node[263].yCoor = 297
SN.node[264].xCoor = 148
SN.node[264].yCoor = 315
SN.node[265].xCoor = 188
SN.node[265].yCoor = 320
SN.node[266].xCoor = 682
SN.node[266].yCoor = 306
SN.node[267].xCoor = 734
SN.node[267].yCoor = 301
SN.node[268].xCoor = 747
SN.node[268].yCoor = 318
SN.node[269].xCoor = 798
SN.node[269].yCoor = 310
SN.node[270].xCoor = 807
SN.node[270].yCoor = 303
SN.node[271].xCoor = 841
SN.node[271].yCoor = 312
SN.node[272].xCoor = 881
SN.node[272].yCoor = 300
SN.node[273].xCoor = 928
SN.node[273].yCoor = 321
SN.node[274].xCoor = 962
SN.node[274].yCoor = 302
SN.node[275].xCoor = 972
SN.node[275].yCoor = 290
SN.node[276].xCoor = 9
SN.node[276].yCoor = 339
SN.node[277].xCoor = 52
SN.node[277].yCoor = 348
SN.node[278].xCoor = 70
SN.node[278].yCoor = 347
SN.node[279].xCoor = 120
SN.node[279].yCoor = 327
SN.node[280].xCoor = 158
SN.node[280].yCoor = 327
SN.node[281].xCoor = 190
SN.node[281].yCoor = 335
SN.node[282].xCoor = 674
SN.node[282].yCoor = 323
SN.node[283].xCoor = 693
SN.node[283].yCoor = 342
SN.node[284].xCoor = 734
SN.node[284].yCoor = 343
SN.node[285].xCoor = 760
SN.node[285].yCoor = 323
SN.node[286].xCoor = 795
SN.node[286].yCoor = 347
SN.node[287].xCoor = 838
SN.node[287].yCoor = 335
SN.node[288].xCoor = 856
SN.node[288].yCoor = 342
SN.node[289].xCoor = 889
SN.node[289].yCoor = 346
SN.node[290].xCoor = 904
SN.node[290].yCoor = 329
SN.node[291].xCoor = 960
SN.node[291].yCoor = 354
SN.node[292].xCoor = 992
SN.node[292].yCoor = 350
SN.node[293].xCoor = 3
SN.node[293].yCoor = 358
SN.node[294].xCoor = 52
SN.node[294].yCoor = 380
SN.node[295].xCoor = 88
SN.node[295].yCoor = 372
SN.node[296].xCoor = 107
SN.node[296].yCoor = 380
SN.node[297].xCoor = 150
SN.node[297].yCoor = 354
SN.node[298].xCoor = 178
SN.node[298].yCoor = 366
SN.node[299].xCoor = 701
SN.node[299].yCoor = 375
SN.node[300].xCoor = 712
SN.node[300].yCoor = 375
SN.node[301].xCoor = 749
SN.node[301].yCoor = 357
SN.node[302].xCoor = 795
SN.node[302].yCoor = 363
SN.node[303].xCoor = 810
SN.node[303].yCoor = 385
SN.node[304].xCoor = 842
SN.node[304].yCoor = 380
SN.node[305].xCoor = 875
SN.node[305].yCoor = 359
SN.node[306].xCoor = 923
SN.node[306].yCoor = 370
SN.node[307].xCoor = 958
SN.node[307].yCoor = 371
SN.node[308].xCoor = 982
SN.node[308].yCoor = 360
SN.node[309].xCoor = 23
SN.node[309].yCoor = 398
SN.node[310].xCoor = 35
SN.node[310].yCoor = 416
SN.node[311].xCoor = 70
SN.node[311].yCoor = 410
SN.node[312].xCoor = 123
SN.node[312].yCoor = 410
SN.node[313].xCoor = 132
SN.node[313].yCoor = 415
SN.node[314].xCoor = 183
SN.node[314].yCoor = 407
SN.node[315].xCoor = 198
SN.node[315].yCoor = 418
SN.node[316].xCoor = 773
SN.node[316].yCoor = 391
SN.node[317].xCoor = 792
SN.node[317].yCoor = 413
SN.node[318].xCoor = 821
SN.node[318].yCoor = 390
SN.node[319].xCoor = 865
SN.node[319].yCoor = 418
SN.node[320].xCoor = 871
SN.node[320].yCoor = 398
SN.node[321].xCoor = 912
SN.node[321].yCoor = 399
SN.node[322].xCoor = 935
SN.node[322].yCoor = 407
SN.node[323].xCoor = 969
SN.node[323].yCoor = 390
SN.node[324].xCoor = 25
SN.node[324].yCoor = 444
SN.node[325].xCoor = 34
SN.node[325].yCoor = 438
SN.node[326].xCoor = 85
SN.node[326].yCoor = 438
SN.node[327].xCoor = 109
SN.node[327].yCoor = 421
SN.node[328].xCoor = 161
SN.node[328].yCoor = 422
SN.node[329].xCoor = 188
SN.node[329].yCoor = 440
SN.node[330].xCoor = 214
SN.node[330].yCoor = 445
SN.node[331].xCoor = 241
SN.node[331].yCoor = 436
SN.node[332].xCoor = 269
SN.node[332].yCoor = 423
SN.node[333].xCoor = 293
SN.node[333].yCoor = 437
SN.node[334].xCoor = 764
SN.node[334].yCoor = 419
SN.node[335].xCoor = 803
SN.node[335].yCoor = 434
SN.node[336].xCoor = 815
SN.node[336].yCoor = 424
SN.node[337].xCoor = 870
SN.node[337].yCoor = 433
SN.node[338].xCoor = 882
SN.node[338].yCoor = 426
SN.node[339].xCoor = 920
SN.node[339].yCoor = 445
SN.node[340].xCoor = 945
SN.node[340].yCoor = 436
SN.node[341].xCoor = 999
SN.node[341].yCoor = 440
SN.node[342].xCoor = 18
SN.node[342].yCoor = 480
SN.node[343].xCoor = 41
SN.node[343].yCoor = 455
SN.node[344].xCoor = 76
SN.node[344].yCoor = 453
SN.node[345].xCoor = 114
SN.node[345].yCoor = 483
SN.node[346].xCoor = 151
SN.node[346].yCoor = 458
SN.node[347].xCoor = 163
SN.node[347].yCoor = 479
SN.node[348].xCoor = 207
SN.node[348].yCoor = 457
SN.node[349].xCoor = 253
SN.node[349].yCoor = 482
SN.node[350].xCoor = 271
SN.node[350].yCoor = 458
SN.node[351].xCoor = 298
SN.node[351].yCoor = 459
SN.node[352].xCoor = 341
SN.node[352].yCoor = 470
SN.node[353].xCoor = 804
SN.node[353].yCoor = 464
SN.node[354].xCoor = 809
SN.node[354].yCoor = 462
SN.node[355].xCoor = 851
SN.node[355].yCoor = 454
SN.node[356].xCoor = 880
SN.node[356].yCoor = 464
SN.node[357].xCoor = 919
SN.node[357].yCoor = 458
SN.node[358].xCoor = 943
SN.node[358].yCoor = 463
SN.node[359].xCoor = 989
SN.node[359].yCoor = 455
SN.node[360].xCoor = 16
SN.node[360].yCoor = 495
SN.node[361].xCoor = 54
SN.node[361].yCoor = 510
SN.node[362].xCoor = 72
SN.node[362].yCoor = 490
SN.node[363].xCoor = 98
SN.node[363].yCoor = 513
SN.node[364].xCoor = 151
SN.node[364].yCoor = 511
SN.node[365].xCoor = 180
SN.node[365].yCoor = 494
SN.node[366].xCoor = 214
SN.node[366].yCoor = 501
SN.node[367].xCoor = 254
SN.node[367].yCoor = 513
SN.node[368].xCoor = 275
SN.node[368].yCoor = 490
SN.node[369].xCoor = 305
SN.node[369].yCoor = 516
SN.node[370].xCoor = 329
SN.node[370].yCoor = 513
SN.node[371].xCoor = 380
SN.node[371].yCoor = 496
SN.node[372].xCoor = 833
SN.node[372].yCoor = 494
SN.node[373].xCoor = 859
SN.node[373].yCoor = 491
SN.node[374].xCoor = 875
SN.node[374].yCoor = 508
SN.node[375].xCoor = 904
SN.node[375].yCoor = 487
SN.node[376].xCoor = 960
SN.node[376].yCoor = 502
SN.node[377].xCoor = 989
SN.node[377].yCoor = 505
SN.node[378].xCoor = 12
SN.node[378].yCoor = 527
SN.node[379].xCoor = 48
SN.node[379].yCoor = 533
SN.node[380].xCoor = 81
SN.node[380].yCoor = 517
SN.node[381].xCoor = 119
SN.node[381].yCoor = 519
SN.node[382].xCoor = 144
SN.node[382].yCoor = 524
SN.node[383].xCoor = 175
SN.node[383].yCoor = 527
SN.node[384].xCoor = 211
SN.node[384].yCoor = 535
SN.node[385].xCoor = 250
SN.node[385].yCoor = 520
SN.node[386].xCoor = 277
SN.node[386].yCoor = 516
SN.node[387].xCoor = 316
SN.node[387].yCoor = 534
SN.node[388].xCoor = 334
SN.node[388].yCoor = 543
SN.node[389].xCoor = 364
SN.node[389].yCoor = 521
SN.node[390].xCoor = 837
SN.node[390].yCoor = 516
SN.node[391].xCoor = 866
SN.node[391].yCoor = 522
SN.node[392].xCoor = 902
SN.node[392].yCoor = 543
SN.node[393].xCoor = 911
SN.node[393].yCoor = 523
SN.node[394].xCoor = 939
SN.node[394].yCoor = 544
SN.node[395].xCoor = 989
SN.node[395].yCoor = 524
SN.node[396].xCoor = 21
SN.node[396].yCoor = 569
SN.node[397].xCoor = 63
SN.node[397].yCoor = 558
SN.node[398].xCoor = 78
SN.node[398].yCoor = 565
SN.node[399].xCoor = 110
SN.node[399].yCoor = 566
SN.node[400].xCoor = 153
SN.node[400].yCoor = 570
SN.node[401].xCoor = 169
SN.node[401].yCoor = 553
SN.node[402].xCoor = 199
SN.node[402].yCoor = 554
SN.node[403].xCoor = 236
SN.node[403].yCoor = 557
SN.node[404].xCoor = 283
SN.node[404].yCoor = 574
SN.node[405].xCoor = 291
SN.node[405].yCoor = 576
SN.node[406].xCoor = 345
SN.node[406].yCoor = 561
SN.node[407].xCoor = 360
SN.node[407].yCoor = 567
SN.node[408].xCoor = 387
SN.node[408].yCoor = 554
SN.node[409].xCoor = 846
SN.node[409].yCoor = 556
SN.node[410].xCoor = 901
SN.node[410].yCoor = 556
SN.node[411].xCoor = 908
SN.node[411].yCoor = 550
SN.node[412].xCoor = 951
SN.node[412].yCoor = 573
SN.node[413].xCoor = 985
SN.node[413].yCoor = 550
SN.node[414].xCoor = 27
SN.node[414].yCoor = 611
SN.node[415].xCoor = 57
SN.node[415].yCoor = 592
SN.node[416].xCoor = 71
SN.node[416].yCoor = 586
SN.node[417].xCoor = 124
SN.node[417].yCoor = 586
SN.node[418].xCoor = 138
SN.node[418].yCoor = 606
SN.node[419].xCoor = 169
SN.node[419].yCoor = 596
SN.node[420].xCoor = 221
SN.node[420].yCoor = 592
SN.node[421].xCoor = 236
SN.node[421].yCoor = 581
SN.node[422].xCoor = 265
SN.node[422].yCoor = 591
SN.node[423].xCoor = 312
SN.node[423].yCoor = 591
SN.node[424].xCoor = 341
SN.node[424].yCoor = 590
SN.node[425].xCoor = 850
SN.node[425].yCoor = 585
SN.node[426].xCoor = 883
SN.node[426].yCoor = 588
SN.node[427].xCoor = 906
SN.node[427].yCoor = 594
SN.node[428].xCoor = 946
SN.node[428].yCoor = 602
SN.node[429].xCoor = 971
SN.node[429].yCoor = 597
SN.node[430].xCoor = 14
SN.node[430].yCoor = 629
SN.node[431].xCoor = 55
SN.node[431].yCoor = 631
SN.node[432].xCoor = 72
SN.node[432].yCoor = 635
SN.node[433].xCoor = 102
SN.node[433].yCoor = 621
SN.node[434].xCoor = 138
SN.node[434].yCoor = 627
SN.node[435].xCoor = 189
SN.node[435].yCoor = 626
SN.node[436].xCoor = 208
SN.node[436].yCoor = 619
SN.node[437].xCoor = 234
SN.node[437].yCoor = 628
SN.node[438].xCoor = 262
SN.node[438].yCoor = 634
SN.node[439].xCoor = 300
SN.node[439].yCoor = 643
SN.node[440].xCoor = 900
SN.node[440].yCoor = 644
SN.node[441].xCoor = 916
SN.node[441].yCoor = 642
SN.node[442].xCoor = 953
SN.node[442].yCoor = 616
SN.node[443].xCoor = 968
SN.node[443].yCoor = 624
SN.node[444].xCoor = 22
SN.node[444].yCoor = 670
SN.node[445].xCoor = 63
SN.node[445].yCoor = 675
SN.node[446].xCoor = 91
SN.node[446].yCoor = 675
SN.node[447].xCoor = 123
SN.node[447].yCoor = 648
SN.node[448].xCoor = 154
SN.node[448].yCoor = 668
SN.node[449].xCoor = 171
SN.node[449].yCoor = 673
SN.node[450].xCoor = 205
SN.node[450].yCoor = 650
SN.node[451].xCoor = 257
SN.node[451].yCoor = 655
SN.node[452].xCoor = 268
SN.node[452].yCoor = 645
SN.node[453].xCoor = 293
SN.node[453].yCoor = 645
SN.node[454].xCoor = 804
SN.node[454].yCoor = 664
SN.node[455].xCoor = 831
SN.node[455].yCoor = 657
SN.node[456].xCoor = 846
SN.node[456].yCoor = 662
SN.node[457].xCoor = 889
SN.node[457].yCoor = 667
SN.node[458].xCoor = 907
SN.node[458].yCoor = 657
SN.node[459].xCoor = 942
SN.node[459].yCoor = 675
SN.node[460].xCoor = 990
SN.node[460].yCoor = 660
SN.node[461].xCoor = 18
SN.node[461].yCoor = 680
SN.node[462].xCoor = 37
SN.node[462].yCoor = 678
SN.node[463].xCoor = 66
SN.node[463].yCoor = 678
SN.node[464].xCoor = 119
SN.node[464].yCoor = 690
SN.node[465].xCoor = 156
SN.node[465].yCoor = 690
SN.node[466].xCoor = 183
SN.node[466].yCoor = 709
SN.node[467].xCoor = 202
SN.node[467].yCoor = 691
SN.node[468].xCoor = 246
SN.node[468].yCoor = 702
SN.node[469].xCoor = 289
SN.node[469].yCoor = 681
SN.node[470].xCoor = 314
SN.node[470].yCoor = 699
SN.node[471].xCoor = 348
SN.node[471].yCoor = 703
SN.node[472].xCoor = 755
SN.node[472].yCoor = 703
SN.node[473].xCoor = 797
SN.node[473].yCoor = 703
SN.node[474].xCoor = 836
SN.node[474].yCoor = 677
SN.node[475].xCoor = 861
SN.node[475].yCoor = 694
SN.node[476].xCoor = 880
SN.node[476].yCoor = 706
SN.node[477].xCoor = 904
SN.node[477].yCoor = 703
SN.node[478].xCoor = 966
SN.node[478].yCoor = 709
SN.node[479].xCoor = 968
SN.node[479].yCoor = 698
SN.node[480].xCoor = 30
SN.node[480].yCoor = 724
SN.node[481].xCoor = 59
SN.node[481].yCoor = 729
SN.node[482].xCoor = 79
SN.node[482].yCoor = 736
SN.node[483].xCoor = 125
SN.node[483].yCoor = 720
SN.node[484].xCoor = 148
SN.node[484].yCoor = 741
SN.node[485].xCoor = 182
SN.node[485].yCoor = 740
SN.node[486].xCoor = 222
SN.node[486].yCoor = 727
SN.node[487].xCoor = 233
SN.node[487].yCoor = 718
SN.node[488].xCoor = 268
SN.node[488].yCoor = 715
SN.node[489].xCoor = 290
SN.node[489].yCoor = 717
SN.node[490].xCoor = 338
SN.node[490].yCoor = 728
SN.node[491].xCoor = 364
SN.node[491].yCoor = 724
SN.node[492].xCoor = 391
SN.node[492].yCoor = 729
SN.node[493].xCoor = 737
SN.node[493].yCoor = 741
SN.node[494].xCoor = 742
SN.node[494].yCoor = 714
SN.node[495].xCoor = 792
SN.node[495].yCoor = 710
SN.node[496].xCoor = 828
SN.node[496].yCoor = 737
SN.node[497].xCoor = 859
SN.node[497].yCoor = 733
SN.node[498].xCoor = 902
SN.node[498].yCoor = 724
SN.node[499].xCoor = 913
SN.node[499].yCoor = 725
SN.node[500].xCoor = 957
SN.node[500].yCoor = 717
SN.node[501].xCoor = 989
SN.node[501].yCoor = 723
SN.node[502].xCoor = 12
SN.node[502].yCoor = 767
SN.node[503].xCoor = 60
SN.node[503].yCoor = 744
SN.node[504].xCoor = 77
SN.node[504].yCoor = 752
SN.node[505].xCoor = 119
SN.node[505].yCoor = 756
SN.node[506].xCoor = 136
SN.node[506].yCoor = 752
SN.node[507].xCoor = 190
SN.node[507].yCoor = 751
SN.node[508].xCoor = 215
SN.node[508].yCoor = 771
SN.node[509].xCoor = 227
SN.node[509].yCoor = 766
SN.node[510].xCoor = 281
SN.node[510].yCoor = 751
SN.node[511].xCoor = 291
SN.node[511].yCoor = 773
SN.node[512].xCoor = 339
SN.node[512].yCoor = 762
SN.node[513].xCoor = 382
SN.node[513].yCoor = 766
SN.node[514].xCoor = 410
SN.node[514].yCoor = 752
SN.node[515].xCoor = 434
SN.node[515].yCoor = 765
SN.node[516].xCoor = 494
SN.node[516].yCoor = 764
SN.node[517].xCoor = 529
SN.node[517].yCoor = 771
SN.node[518].xCoor = 559
SN.node[518].yCoor = 745
SN.node[519].xCoor = 584
SN.node[519].yCoor = 751
SN.node[520].xCoor = 637
SN.node[520].yCoor = 759
SN.node[521].xCoor = 655
SN.node[521].yCoor = 760
SN.node[522].xCoor = 697
SN.node[522].yCoor = 749
SN.node[523].xCoor = 735
SN.node[523].yCoor = 754
SN.node[524].xCoor = 766
SN.node[524].yCoor = 765
SN.node[525].xCoor = 788
SN.node[525].yCoor = 748
SN.node[526].xCoor = 823
SN.node[526].yCoor = 742
SN.node[527].xCoor = 851
SN.node[527].yCoor = 765
SN.node[528].xCoor = 879
SN.node[528].yCoor = 742
SN.node[529].xCoor = 910
SN.node[529].yCoor = 762
SN.node[530].xCoor = 954
SN.node[530].yCoor = 759
SN.node[531].xCoor = 998
SN.node[531].yCoor = 763
SN.node[532].xCoor = 23
SN.node[532].yCoor = 794
SN.node[533].xCoor = 63
SN.node[533].yCoor = 791
SN.node[534].xCoor = 81
SN.node[534].yCoor = 774
SN.node[535].xCoor = 110
SN.node[535].yCoor = 792
SN.node[536].xCoor = 135
SN.node[536].yCoor = 798
SN.node[537].xCoor = 168
SN.node[537].yCoor = 780
SN.node[538].xCoor = 204
SN.node[538].yCoor = 788
SN.node[539].xCoor = 229
SN.node[539].yCoor = 783
SN.node[540].xCoor = 275
SN.node[540].yCoor = 789
SN.node[541].xCoor = 321
SN.node[541].yCoor = 806
SN.node[542].xCoor = 343
SN.node[542].yCoor = 783
SN.node[543].xCoor = 360
SN.node[543].yCoor = 792
SN.node[544].xCoor = 403
SN.node[544].yCoor = 793
SN.node[545].xCoor = 446
SN.node[545].yCoor = 786
SN.node[546].xCoor = 453
SN.node[546].yCoor = 797
SN.node[547].xCoor = 514
SN.node[547].yCoor = 792
SN.node[548].xCoor = 536
SN.node[548].yCoor = 777
SN.node[549].xCoor = 565
SN.node[549].yCoor = 796
SN.node[550].xCoor = 594
SN.node[550].yCoor = 777
SN.node[551].xCoor = 619
SN.node[551].yCoor = 800
SN.node[552].xCoor = 670
SN.node[552].yCoor = 780
SN.node[553].xCoor = 704
SN.node[553].yCoor = 795
SN.node[554].xCoor = 725
SN.node[554].yCoor = 784
SN.node[555].xCoor = 764
SN.node[555].yCoor = 805
SN.node[556].xCoor = 790
SN.node[556].yCoor = 805
SN.node[557].xCoor = 806
SN.node[557].yCoor = 798
SN.node[558].xCoor = 861
SN.node[558].yCoor = 793
SN.node[559].xCoor = 902
SN.node[559].yCoor = 796
SN.node[560].xCoor = 914
SN.node[560].yCoor = 779
SN.node[561].xCoor = 951
SN.node[561].yCoor = 785
SN.node[562].xCoor = 990
SN.node[562].yCoor = 778
SN.node[563].xCoor = 22
SN.node[563].yCoor = 828
SN.node[564].xCoor = 39
SN.node[564].yCoor = 826
SN.node[565].xCoor = 90
SN.node[565].yCoor = 810
SN.node[566].xCoor = 121
SN.node[566].yCoor = 827
SN.node[567].xCoor = 130
SN.node[567].yCoor = 807
SN.node[568].xCoor = 186
SN.node[568].yCoor = 829
SN.node[569].xCoor = 209
SN.node[569].yCoor = 830
SN.node[570].xCoor = 249
SN.node[570].yCoor = 837
SN.node[571].xCoor = 261
SN.node[571].yCoor = 834
SN.node[572].xCoor = 312
SN.node[572].yCoor = 824
SN.node[573].xCoor = 329
SN.node[573].yCoor = 834
SN.node[574].xCoor = 372
SN.node[574].yCoor = 816
SN.node[575].xCoor = 399
SN.node[575].yCoor = 818